15

U      -0.414633333333333      0.213933333333333      0.048566666666667
O       1.198463966963785      0.986386857902712      0.121591677139062
O      -2.027730633630452     -0.558520191236045     -0.024458343805729
O      -1.402282637256894      2.329497054027958     -0.471698877635404
H      -2.376691609111610      2.487742166740186     -0.631341102224412
H      -0.905048620294507      3.192246716171771     -0.563466806925467
O       0.577193567245380     -1.902798274581663      0.556832648568301
H       0.081269141770418     -2.766578708047351      0.645952382517386
H       1.552818279489431     -2.061386355126374      0.708510733893301
O      -0.107474969215891     -0.210255633307651     -2.285135394141507
H      -0.767919159515271     -0.667990212700856     -2.880360163726511
H       0.700705423449278      0.043179504771343     -2.816750935391436
O      -0.721531476684989      0.633915503962438      2.383214475536301
H      -1.531619293668809      0.383875092132397      2.913532796194991
H      -0.058012045152887      1.084340260680414      2.980591661671553
