15

U      -0.414633333333333      0.213933333333333      0.048566666666667
O       1.198626701905761      0.986064004795359      0.121410917558262
O      -2.027893368572427     -0.558197338128693     -0.024277584224929
O      -1.326202225290319      2.324854599976594     -0.696096762893675
H      -2.174564221354987      2.435889390318895     -1.213738723100548
H      -0.893450460600777      3.217493379881330     -0.569914677127615
O       0.601696742793008     -1.776177178583365     -0.870191887337593
H       0.754792142361024     -2.606123157164076     -0.333767175687564
H       0.954065180660006     -1.908362818377386     -1.796670943024994
O      -0.416869681940512      0.315981425877081     -2.365630716275664
H      -0.974919332170589     -0.253812669385882     -2.968884623748751
H       0.113687844153235      0.962169567701789     -2.914219448269325
O      -1.148563485419438      1.523378685082661      1.942555817286977
H      -1.761426497978222      2.313501748746964      1.932334657709579
H      -0.884192333698778      1.318756177454473      2.885019356905271
