18

U      -0.414633333333333      0.213933333333333      0.048566666666667
O       1.198626701905761      0.986064004795359      0.121410917558262
O      -2.027893368572427     -0.558197338128693     -0.024277584224929
O      -1.346336556394999      2.232526440546890     -0.855396159773274
H      -2.301784772898222      2.357362362329402     -1.122855873026544
H      -0.839785384487140      3.078091719803392     -1.023994109804258
O       0.608031234418831     -1.878706369997666     -0.525824583115829
H       0.118089561881957     -2.734461864902836     -0.692076471680677
H       1.590361931792764     -2.030264304324051     -0.635627103758861
O      -0.252622552492008      0.101426714530406     -2.342844493825908
H      -0.944114070593013     -0.288291312253185     -2.951087323618642
H       0.517160134662574      0.437677012337957     -2.885403570592119
O      -1.150955325396347      1.578492191910641      1.880016811629445
H      -2.065932799669053      1.558790720784376      2.283040475461982
H      -0.591241280978681      2.256296511691125      2.356778274594453
O       0.057363519839578     -0.962152990237849      2.086067156250214
H      -0.564350751008472     -1.599200261392550      2.541744827129781
H       0.904648460021654     -0.889451630215765      2.612206626725101
