18

U      -0.414633333333333      0.213933333333333      0.048566666666667
O       1.186322250683996      0.980816794514442      0.121273857417100
O      -2.015588917350663     -0.552950127847776     -0.024140524083766
O      -1.188190236061415      1.892744519054828     -0.703105703077776
H      -2.143289144017975      2.017390133941802     -0.971898460996652
H      -0.681692123954911      2.738582044471351     -0.870493107113446
O       0.624481135899285     -1.910456869141610     -0.534735714843684
H       0.134414789715027     -2.766142657881308     -0.700978932108429
H       1.606796328355216     -2.062179849552805     -0.644448976965505
O      -0.249928714729347      0.100422273632743     -2.380582728505471
H      -0.941171145357792     -0.289352163403971     -2.989072490400930
H       0.520229929474883      0.436310187841138     -2.922832644915088
O      -1.162287620199809      1.600286815892682      1.908580933121417
H      -2.077202401277592      1.580005186491248      2.311718129215024
H      -0.602947216761654      2.278452693377377      2.385266737081484
O       0.063622827291654     -0.980552201225952      2.117723701600759
H      -0.557839327807495     -1.618473572183828      2.572521584461645
H       0.910429963662585     -0.907374727429408      2.644565927622951
