21

U      -0.000000000000000     -0.000000000000000     -0.000000000000000
O      -0.000000000000001     -0.000000000000001      1.790000000000000
O       0.000000000000001      0.000000000000001     -1.790000000000000
O      -4.273724027040774     -0.000050114576501      0.030608797700178
H      -4.839145459453081     -0.000329965748902      0.855410910604926
H      -4.862880945440593      0.000908828765069     -0.777409275073753
O       0.730425505511032     -2.285014097965695      0.000820039913498
H       0.914129695309878     -2.831663905411056      0.817781947636434
H       0.938773531556874     -2.824470689965456     -0.815009406350122
O       0.730281665269576      2.285027132328189      0.000651394033946
H       0.914298296181330      2.831667776259881      0.817549114651303
H       0.938283610476807      2.824505165606261     -0.815252180171016
O       2.397527394123994      0.000075753518965     -0.003167444399401
H       2.973906541785874     -0.000414499636247     -0.820349699341594
H       2.975847887865966      0.000997327625317      0.812641698243172
O      -1.946506957134852      1.404105764559725      0.001527076453787
H      -1.969808614454792      2.403774009020826     -0.009447156193866
H      -2.881263777871347      1.048997201255541      0.012822843565281
O      -1.946401144165145     -1.404367171043914      0.001515410663149
H      -1.969792775262537     -2.404031832631438     -0.009592963101937
H      -2.881129427286255     -1.049170908066997      0.012408137626296
