21

U      -0.000000000000000     -0.000000000000000     -0.000000000000000
O      -0.000000000000001     -0.000000000000001      1.790000000000000
O       0.000000000000001      0.000000000000001     -1.790000000000000
O      -4.270145808282847     -0.000502400146504      0.031484768768927
H      -4.835537322083053     -0.000708758545650      0.856307412455994
H      -4.859331866187261      0.000625236509892     -0.776511838653795
O       0.732775636676544     -2.284745635664417      0.000737000231679
H       0.916809432332172     -2.831199122452932      0.817756062942738
H       0.940770158502590     -2.824407062999648     -0.815047176335172
O       0.732749321850845      2.284792640881429      0.000666969566206
H       0.917161644733931      2.831422295736569      0.817482809031758
H       0.940334956246509      2.824289251629692     -0.815330341326230
O       2.398130017075601      0.000097819488104     -0.003511230736047
H       2.974306564718104     -0.000354088879535     -0.820836369053470
H       2.976652719352760      0.001020927849952      0.812154528518861
O      -1.944898868263528      1.406283836229102      0.000731699847929
H      -1.969529124906219      2.405916069875351     -0.010615013910959
H      -2.879175346959511      1.049947976277298      0.013069295555433
O      -1.944878398846186     -1.406218740124948      0.001779276657093
H      -1.969828348761353     -2.405836215727994     -0.010153973873366
H      -2.879053849192537     -1.049571519756552      0.012687446700181
