21

U       0.000000000000000     -0.000000000000000     -0.000000000000000
O       0.181355591625705     -0.000651383657121      1.785527976815433
O      -0.178993271448007     -0.000053206695090     -1.785262957249477
O      -3.953727227741378     -0.001092252828551      1.363976419289095
H      -4.038406050167450     -0.001420738111792      2.360384663499245
H      -4.864923622044972     -0.000556902939115      0.952004521693366
O       0.735809703794442     -2.281833078712877     -0.040141802668899
H       0.768677740418698     -2.896346568730249      0.748079525864615
H       1.104649205684357     -2.749790346464994     -0.843244173107172
O       0.739065868669934      2.281911071846247     -0.040867471356738
H       0.771671552281616      2.895070387049834      0.748418613390284
H       1.106468380064166      2.751872138615512     -0.843458270171617
O       2.383230230077365      0.003028730864294     -0.274636230387297
H       2.867835295623603      0.001768867997055     -1.149368385502497
H       3.046401008347656      0.003132748323592      0.473831877168894
O      -1.930161257604526      1.405485805028732      0.211434311310266
H      -2.056997665369998      2.341621017705820     -0.116534268360368
H      -2.771217136792448      1.089207242128264      0.650288363055316
O      -1.932437233923802     -1.402780101045958      0.213233828385792
H      -2.056720200814285     -2.338734790101141     -0.116224157063818
H      -2.774983960108915     -1.088812338538098      0.650885811473447
21

U       0.000000000000000     -0.000000000000000     -0.000000000000000
O       0.043343326343002     -0.000119116158640      1.794195114577446
O      -0.048245842674518      0.000409087739085     -1.793215403440782
O      -3.848343902319510     -0.001666710052228      1.416045046504441
H      -3.862993828232229     -0.001218190416689      2.415937629985731
H      -4.786167477265330     -0.000463256818166      1.068934842136782
O       0.735435167838290     -2.282177582128593     -0.007365254542443
H       0.696551287679648     -2.902610449707668      0.775929773331100
H       1.149654470710832     -2.753730816622307     -0.785863755611201
O       0.733629973706389      2.282889226620364     -0.005877561498497
H       0.694442897304330      2.902562511928779      0.778003419593744
H       1.147473472219874      2.755430421077609     -0.783976770005382
O       2.396409227898856      0.001116548917727     -0.077830097987921
H       2.949274449120877      0.001172000217924     -0.911100788753100
H       2.997735811907590      0.001649852592708      0.721173065304677
O      -1.940611060723925      1.403554573393421      0.093827949384563
H      -2.098641156292139      2.305829982920516     -0.307327350041251
H      -2.764285238078651      1.103896397189823      0.575248583542832
O      -1.940063389406140     -1.407510371651543      0.093355206726149
H      -2.097908455709256     -2.310152278013590     -0.307047745214586
H      -2.763477567555297     -1.108034339271835      0.575333626630045
21

U       0.000000000000000     -0.000000000000000     -0.000000000000000
O      -0.070679454838914     -0.000530494252780      1.793156049129034
O       0.067293528580645     -0.000942280185293     -1.792475772916622
O      -3.570455196208160      0.001693958136683      1.641214981975913
H      -3.362800922303253      0.001282638834187      2.619417176486566
H      -4.561930476285786      0.002964070634806      1.510926241828361
O       0.736081177936216     -2.283138828029639      0.018840562803984
H       0.518722232938110     -2.953707870259808      0.728130523702787
H       1.315324665619370     -2.709005169706266     -0.676224068006433
O       0.736907407166899      2.282774532289443      0.019526073151395
H       0.519998187669000      2.953542876995972      0.728765255822853
H       1.315794310728589      2.708417008662539     -0.675972622168545
O       2.396020696858997     -0.000407640123577      0.085641374990618
H       3.011146083142018     -0.001959456803342     -0.702786396599880
H       2.934317087506705      0.001703162703572      0.928394328309130
O      -1.938964174686842      1.404476150723848     -0.019199119431709
H      -2.146370206842982      2.245242843141632     -0.519293217323400
H      -2.721598872627170      1.153872736120263      0.550608618466676
O      -1.941070167622982     -1.407605481397473     -0.016341472872085
H      -2.148489444778321     -2.249640863110393     -0.514290927543876
H      -2.723837817648811     -1.155341568669173      0.552550190283607
21

U       0.000000000000000     -0.000000000000000     -0.000000000000000
O      -0.081882882386685      0.000089849310763      1.792551824954373
O       0.095663160502512     -0.001510845642124     -1.791637726930529
O      -3.304134891751966      0.000525701957649      1.795077497641340
H      -2.994066837598692      0.000032800750714      2.745791733803817
H      -4.303832741660887      0.001265361501000      1.770507967909601
O       0.743178307493967     -2.280959130932862      0.062559106749659
H       0.479449283672417     -2.953158240027940      0.754364975274866
H       1.370407938394242     -2.704096068946377     -0.591304886607714
O       0.744066015010368      2.280894464749125      0.059278251285331
H       0.483926577163744      2.951825481135752      0.753669383232773
H       1.368031282252074      2.705184103205569     -0.596957718450014
O       2.399156258589497     -0.000512949941329      0.064217507946432
H       3.002770498250247      0.000972640584912     -0.733057628188869
H       2.949631023922906     -0.002073023294800      0.899067853159428
O      -1.929246744682007      1.409683973375083     -0.077200836510769
H      -2.171454747215347      2.206163958487587     -0.631235958884789
H      -2.679009256655787      1.199661045149055      0.550291430579538
O      -1.933901763564223     -1.417302686173042     -0.076249319189652
H      -2.176052729934375     -2.214987397760147     -0.628573508761499
H      -2.683297270155872     -1.206550265028514      0.551436742215224
21

U       0.000000000000000     -0.000000000000000     -0.000000000000000
O      -0.058191294204328      0.000985867116778      1.793158098521522
O       0.116050513540304     -0.004021747385943     -1.791346951287963
O      -3.069001217598348      0.001855461245885      1.868659474083926
H      -2.680373890020382      0.000692483434510      2.790053769563455
H      -4.067241088624924      0.003871468004366      1.927930846681478
O       0.750419545599379     -2.281039055776060      0.051230398625497
H       0.474094053592304     -2.959389963325076      0.732027188199652
H       1.384158129857103     -2.700252354398983     -0.598873913835745
O       0.755116975511664      2.279457607059565      0.044075701983923
H       0.481379635649332      2.960957613315901      0.722769749576584
H       1.389836114817749      2.694454254260764     -0.607775045511473
O       2.402122200516585     -0.002417298582837      0.103825852952472
H       3.021927659408286     -0.009352035552409     -0.680899004912507
H       2.935394110134619      0.003628576765100      0.949748141229364
O      -1.915679897078815      1.420775619502971     -0.143757272104492
H      -2.176798941332056      2.172631163318758     -0.749174554614449
H      -2.646279357927773      1.257571290697073      0.519257640899905
O      -1.923581329750933     -1.430558103049800     -0.143120232222032
H      -2.183488449172626     -2.184077232126857     -0.746988770389795
H      -2.654542227077894     -1.267015570898731      0.519412790922158
21

U       0.000000000000000     -0.000000000000000     -0.000000000000000
O      -0.043281925981394      0.008611404896657      1.793714556554304
O       0.175269894886605     -0.009181708470349     -1.788093148726379
O      -2.933501336903181     -0.000704148085868      1.777682207577074
H      -2.563365162647133     -0.001772795307494      2.706659102069189
H      -3.932720379729697     -0.004798359853722      1.816982867658823
O       0.748640534278071     -2.280847282233851      0.107954222276406
H       0.407614201536584     -2.963818939608713      0.753903721540495
H       1.450508767251735     -2.692826938774929     -0.473125588196064
O       0.767019105868839      2.276690523446663      0.078951081134107
H       0.450324390465864      2.962579209529363      0.734131336895509
H       1.452517355176234      2.683806020728949     -0.524662306779957
O       2.407379412265300     -0.009682210672887      0.105392630267587
H       3.024142303967629      0.002250929955273     -0.681665903498314
H       2.943922866079998     -0.022970099550519      0.949160699216496
O      -1.886729111986864      1.435509688656439     -0.288927533012125
H      -2.104551374851368      2.144235242633052     -0.959942846504395
H      -2.648690267687289      1.337031221285428      0.351164014087139
O      -1.903277572173119     -1.446722761454200     -0.300394759319976
H      -2.119875339803358     -2.148888954490339     -0.978663175520179
H      -2.665465951586188     -1.356046619457607      0.340578494069191
21

U       0.000000000000000     -0.000000000000000     -0.000000000000000
O       0.084723390832369     -0.021538871368556      1.792977173568271
O       0.178429798874713      0.013891955764869     -1.789868951845758
O      -2.722517888846138     -0.005341763294147      1.788270659130146
H      -2.389686667230055     -0.008029974372810      2.731253241916670
H      -3.722507296336784     -0.009911582122272      1.787721421124975
O       0.775405464376987     -2.278119076380609      0.050748561550073
H       0.798259584336836     -2.857456000888363      0.865516268999723
H       1.128944857759427     -2.789951244155835     -0.732218697891399
O       0.770012274600778      2.279186741037055      0.103488388533818
H       0.420039102376084      2.975180077598960      0.730474874978631
H       1.486076986301500      2.677020062532278     -0.470079372907705
O       2.420336939965885      0.009371985974757      0.040963929542896
H       3.013892995055775     -0.246485411655640     -0.722074864715908
H       2.981178571996611      0.260224703407716      0.829969365479564
O      -1.862573151206190      1.456820183428702     -0.382058965056899
H      -2.023776423537512      2.102909006156541     -1.128103694369981
H      -2.646803599337027      1.461664971539868      0.238391784199370
O      -1.872288528507008     -1.456208416395398     -0.402387554063809
H      -2.030297569464786     -2.104130352690104     -1.147525331554470
H      -2.655838854623084     -1.465138529737958      0.218876592269360
21

U       0.000000000000000     -0.000000000000000     -0.000000000000000
O       0.200676819871784     -0.035726533030320      1.784961185932163
O       0.189124084974832      0.035707284410975     -1.790526695305255
O      -2.549314757515305     -0.009316153284128      1.742895313950527
H      -2.334878935653378      0.099826060693013      2.713516380809560
H      -3.529602933939993     -0.174583263652646      1.634627713107063
O       0.772688661926087     -2.283808391838373      0.040085118947898
H       1.365791837155961     -2.670083365081216      0.746498785703067
H       0.564006301737269     -2.986060206759949     -0.640571961368892
O       0.794741322788215      2.273422672660506      0.116898055707930
H       0.546776006806343      2.933371243959447      0.826109649881698
H       1.419365417359689      2.703505332267665     -0.534925268810301
O       2.432972321838780     -0.010823344429925     -0.025993213215105
H       3.000875356608951     -0.360111529664144     -0.771301140688452
H       3.019692642680603      0.333799949630887      0.706805565647104
O      -1.833100247815942      1.489729004566732     -0.459904124678503
H      -1.934878126181213      2.131444672274910     -1.220063493030503
H      -2.647795626043405      1.526606138708006      0.118811278323990
O      -1.836644697992892     -1.457745374238761     -0.545523288098396
H      -2.094999213932911     -1.744129991976030     -1.468148236176908
H      -2.478714894491711     -1.845405508578940      0.115888446762214
21

U       0.000000000000000     -0.000000000000000     -0.000000000000000
O       0.221301195816247      0.276782539224121      1.765447042369374
O       0.266205596643773      0.016937702445773     -1.783356245143004
O      -2.371381297693038     -0.518057567048790      1.665789250137083
H      -2.206650407091471     -0.528641145168329      2.652071015940245
H      -3.347161817323749     -0.647448642262011      1.489408051693518
O       0.516415872197146     -2.281418348953165      0.544045150923222
H       0.861849864166321     -2.589022070139141      1.430642752941624
H       0.447751071258594     -3.062768269923410     -0.076259166417760
O       0.893816996739394      2.252121026104225     -0.142186525625294
H       0.928363148438620      2.905818630026978      0.613780408855591
H       1.308780779663516      2.660504996234574     -0.955222559145258
O       2.418475546947984     -0.213518365242850      0.016473577047312
H       2.985087652439732     -0.400518641811354     -0.786011076060466
H       3.003569155997439     -0.109608718914630      0.820754780389419
O      -1.848381251426112      1.476817602917623     -0.320048830029132
H      -1.942651948014713      2.137435420299426     -1.064828753981439
H      -2.651580291368616      1.526852845754174      0.273556911780807
O      -1.763553878140000     -1.453503365270052     -0.836195094859481
H      -1.982891944804563     -1.574561170849643     -1.804304499947617
H      -2.382725206149907     -2.009856127093744     -0.282030434328336
21

U       0.000000000000000     -0.000000000000000     -0.000000000000000
O       0.294879599357713      0.325849975901116      1.748370415691629
O       0.280003677161501      0.060558007574609     -1.781773619328506
O      -2.177843780222822     -0.682553493411023      1.606582158321550
H      -2.040321142239549     -0.760234868486359      2.594029943274521
H      -3.148581239446972     -0.796579236536829      1.395236670639295
O       0.443254761160661     -2.284048149226305      0.583585068416010
H       0.525908380234361     -2.632166433871003      1.517384853782259
H       0.595044269377245     -3.029988848693256     -0.064899640790093
O       0.920692316129120      2.254075057281866     -0.169936007315198
H       0.970544273989483      2.914785206138915      0.579047892040979
H       1.326810745983377      2.651653908876724     -0.992735422541794
O       2.415342457929293     -0.286690706237137     -0.013508816866576
H       2.983565368774102     -0.396501710124071     -0.829023542065574
H       2.995941147910583     -0.293243085924957      0.800654697123358
O      -1.845108573448164      1.487407408038752     -0.285736974886194
H      -2.061500913309640      1.964395532268179     -1.137591824372519
H      -2.508876200995922      1.742868569087306      0.417222577161678
O      -1.741989012939985     -1.430804312643966     -0.961001171552936
H      -1.990788057435383     -1.431132408627866     -1.929556243715176
H      -2.293619541502445     -2.108612806313188     -0.474915370620877
21

U       0.000000000000000     -0.000000000000000     -0.000000000000000
O       0.382198039040237      0.322936565665778      1.734637054710769
O       0.249209708586904      0.057506446415856     -1.788249970349658
O      -2.105358553640355     -0.568841145529743      1.513411425897152
H      -2.015759769155467     -0.675673211912063      2.503643200488997
H      -3.066912599366608     -0.659108524001819      1.254055266280199
O       0.475219628327224     -2.279776296337571      0.598669775636377
H       0.692067826430646     -2.588302811216797      1.524838361043904
H       0.511078287227004     -3.057630272346943     -0.028751413508778
O       0.931275489886909      2.251959475841819     -0.188247707040395
H       1.152149044945671      2.849620653441128      0.582476620761908
H       1.166054044520668      2.711831557487272     -1.044633542284745
O       2.423140176287521     -0.294422129345550     -0.093550271695535
H       2.955908358120873     -0.406580282474888     -0.932346202248729
H       3.037256539195421     -0.306848260836663      0.695567390041255
O      -1.827301336051858      1.497434042098767     -0.405587908085228
H      -2.069057038987596      1.868456679919272     -1.302190597308700
H      -2.450555709126502      1.863227623791310      0.285606016971896
O      -1.706591061205318     -1.518892477241611     -0.975962591401653
H      -1.955351214674220     -1.513753653366468     -1.944514076112356
H      -2.223185886182089     -2.232582020960666     -0.502911830918906
21

U       0.000000000000000     -0.000000000000000     -0.000000000000000
O       0.413070592689549      0.312040390572232      1.730570804628533
O       0.253853740527799      0.072537928912897     -1.786672631390913
O      -2.040779693193852     -0.595901750460951      1.404238584413827
H      -1.993878883452640     -0.726945120422719      2.394505189543315
H      -2.987740180709944     -0.696771972173687      1.099130352052083
O       0.459309424188902     -2.289345102667575      0.563573281523496
H       0.633839280866073     -2.625596150732881      1.489032390184290
H       0.546023096641083     -3.043763599973924     -0.087067533313606
O       0.939151784912962      2.254074374177953     -0.171181442453069
H       1.254363800912788      2.807197081171441      0.599984334781322
H       1.081231110377497      2.758166249606672     -1.023064560258734
O       2.425328044054819     -0.310348747988943     -0.110548474343319
H       2.962692221856850     -0.366111129701070     -0.952053255791968
H       3.034020493420505     -0.385793474958617      0.679262639314670
O      -1.816945564908516      1.505976328002887     -0.452496960211710
H      -2.126276797916283      1.769316900316314     -1.366261662561025
H      -2.357764641291701      1.990561992960507      0.235028646538773
O      -1.695311690453132     -1.560619982439505     -1.087304875628825
H      -1.916745567839933     -1.523193748489881     -2.061761808980831
H      -2.193358834759469     -2.315779758731672     -0.661062275319251
21

U       0.000000000000000     -0.000000000000000     -0.000000000000000
O       0.344715287770933      0.345014312225698      1.739194170176682
O       0.301983364509124      0.019370336843722     -1.779377291643161
O      -2.055389098252070     -0.629631943964995      1.237578459193869
H      -2.077458724516762     -0.773786480567401      2.226887511600387
H      -2.976780296851224     -0.737865527847589      0.864317490883566
O       0.448332405247919     -2.283867696730218      0.581861403052744
H       0.561497750658209     -2.624749821540949      1.515131450564552
H       0.567062900795100     -3.037272311597737     -0.064887818611609
O       0.941952554842480      2.245696175259411     -0.194341864747795
H       1.421211619377571      2.731823662384293      0.536404887090759
H       0.938160962205580      2.807392513110237     -1.021676650593433
O       2.426062343512045     -0.297922160278440     -0.022365200363001
H       2.998392516694374     -0.269110017214308     -0.841882151546525
H       3.001764994328599     -0.449601625916865      0.781102158990467
O      -1.797232883826022      1.495790765749740     -0.565103159904542
H      -2.176719341376120      1.618321379198733     -1.482150747166998
H      -2.265116090568181      2.106629657362193      0.073615207877648
O      -1.657259978581028     -1.675316750989901     -1.213497692967886
H      -1.816219374153710     -1.645100712316369     -2.200320322200742
H      -2.142525419159500     -2.456877374355682     -0.821476718804165
21

U       0.000000000000000     -0.000000000000000     -0.000000000000000
O       0.357894823895998      0.406258056715046      1.721965693700772
O       0.241308218370904     -0.097135173594008     -1.783812204606008
O      -2.020187499751587     -0.650369197844461      1.223016093984088
H      -2.060821355108381     -0.759751346256908      2.216184979626163
H      -2.920409734107690     -0.837674769353101      0.829930159800825
O       0.428093122148792     -2.283027478227805      0.566094403511674
H       0.787457276544560     -2.592066077886882      1.446635457895950
H       0.290874871447568     -3.071673175925958     -0.033246163425597
O       0.950970625637651      2.218497753923610     -0.315731422745331
H       1.280625379797113      2.813319664095319      0.417422475314104
H       1.096327095765356      2.665475570554364     -1.198387827034123
O       2.418399647077270     -0.313131873409967     -0.045811900844766
H       2.944003218852726     -0.624216193749850     -0.837624650789825
H       3.039902388633922     -0.130834488476779      0.716094921335010
O      -1.804341925777129      1.474518559896693     -0.582633803987865
H      -2.147161544656412      1.624042840720815     -1.510058840503211
H      -2.315409302719783      2.047493470108982      0.058076652062428
O      -1.761586845916665     -1.783695771830192     -1.224237576271710
H      -1.889867099902521     -1.744771547088831     -2.215211380751732
H      -2.278507975769700     -2.554181494810249     -0.851217072551924
21

U       0.000000000000000     -0.000000000000000     -0.000000000000000
O       0.436789837731521      0.347099674866836      1.714661769773356
O       0.044172133644363     -0.071364492653029     -1.798205013589825
O      -1.979461300700116     -0.708214514840979      1.222077956701453
H      -2.039483755244628     -0.766184652558432      2.218590258724600
H      -2.845486858396838     -1.003059018141492      0.818263082916996
O       0.410018791413901     -2.311932522149891      0.446373573349114
H       1.042077558680259     -2.664012791499515      1.136693208486657
H      -0.024331978415673     -3.077013005888884     -0.029011809419608
O       1.020660405506581      2.178467223837421     -0.341134617657441
H       1.256206071957654      2.828597096312192      0.381256819121857
H       1.287536039713616      2.554859423296700     -1.228324737109184
O       2.386093205505203     -0.376510691059821     -0.238717140783176
H       2.834995161398868     -0.741843912220843     -1.054203910455716
H       3.074995009117145     -0.165629260826276      0.454783635974045
O      -1.770107257258991      1.586955930738696     -0.348215812401164
H      -2.000781572236650      1.990460243541094     -1.233638666160571
H      -2.377871594533800      1.956173843281868      0.354849364800904
O      -1.871295559803547     -1.906695302591614     -1.233030244709526
H      -1.950056956656236     -1.841303925446394     -2.227776750187613
H      -2.432065991123537     -2.666250767091265     -0.903466867335900
21

U       0.000000000000000     -0.000000000000000     -0.000000000000000
O       0.340205342798997      0.392734048634312      1.724288365907182
O      -0.160906357497663     -0.053552779356613     -1.788422264344624
O      -2.088604824327925     -0.769981382270920      0.917985047682832
H      -2.276684816195274     -0.888504290467404      1.892961066306791
H      -2.899113033096000     -1.021764020141518      0.389135402900413
O       0.471396847350674     -2.241754373809612      0.728748884989568
H       1.104850741126314     -2.560873422553523      1.433659657491493
H       0.005573555867527     -3.026225286693279      0.319341938356667
O       1.170825542355688      2.093479078509225     -0.410691473317793
H       1.273982160894445      2.833197752220237      0.254270928487656
H       1.611386957587771      2.353755392577951     -1.269854950045885
O       2.337987507784155     -0.467373705548087     -0.359157345292598
H       2.693828837128145     -1.138675043804263     -1.009335368287969
H       3.100152553945315     -0.020380636490516      0.109139183228223
O      -1.613382312310183      1.792310127252593     -0.089591889594905
H      -1.781484341384284      2.370897982832510     -0.887700780158470
H      -2.213157971117234      2.074683827393780      0.659096465177055
O      -1.416848766430353     -2.446108399685855     -1.243152579242136
H      -1.282844557810061     -2.515589829076831     -2.231694537401644
H      -2.131185990304278     -3.085122555707027     -0.957875102050817
21

U       0.000000000000000     -0.000000000000000     -0.000000000000000
O       0.296463806224418      0.256731310878672      1.754866985537553
O      -0.158986566531031     -0.041769475020621     -1.787319989276918
O      -2.130342470795053     -0.855328796177883      0.729933671017871
H      -2.679283982516011     -0.610799429518458      1.529226236697454
H      -2.600261282095742     -1.567153359126648      0.207935488675683
O       0.373868447633844     -2.320941838096116      0.448530095953848
H       0.965501995560469     -2.746922600753167      1.133008097655781
H      -0.100715894875390     -3.031754371481051     -0.070618480301515
O       1.184515548414844      2.087493658629791     -0.300715804008728
H       1.408492249278945      2.744336096646443      0.419278952284936
H       1.516189863090830      2.430318545735951     -1.179614686568527
O       2.338402053801850     -0.476897507800417     -0.324277284925252
H       2.705598064445984     -1.127719390910745     -0.988805663726156
H       3.091786770406189     -0.052744574788078      0.178222225725286
O      -1.607696644485347      1.790254493854897     -0.035140325643870
H      -2.283348024462521      1.935439447870059     -0.757924208877688
H      -1.704658294670496      2.502756581457566      0.659797954748865
O      -1.608417508074565     -2.421859360164901     -1.477079367299401
H      -1.581474121475486     -2.168927366184309     -2.444188182448748
H      -2.084829769610235     -3.295023226524926     -1.374044326940884
21

U       0.000000000000000     -0.000000000000000     -0.000000000000000
O       0.307732139872340      0.301210670971370      1.744255549969165
O      -0.241276453848106     -0.176614541717338     -1.769365464332262
O      -2.145071878859916     -0.883604737838956      0.642566380263641
H      -2.779708549218086     -0.649779056361557      1.379154356895303
H      -2.518543497104150     -1.642560544329262      0.109176247095916
O       0.340944150661653     -2.323135127885040      0.435898661282739
H       0.931798680208396     -2.808702272610519      1.080193215719794
H      -0.198230008542571     -2.984543507265843     -0.085474699881099
O       1.163897026439853      2.064808432616374     -0.437197092089660
H       1.577731218868202      2.657558289512043      0.253736239229173
H       1.312507565339282      2.456915022401556     -1.345033712839813
O       2.326874405500905     -0.496070886071080     -0.340789992741315
H       2.680492983205454     -1.134578695996692     -1.024355408898547
H       3.089108125834539     -0.099959580729438      0.171162729066947
O      -1.607209369752990      1.787273647501298     -0.040285624240506
H      -2.417759658035490      1.819696567007687     -0.625056506258274
H      -1.568403611741641      2.613470088396293      0.521758461394782
O      -1.667663750455122     -2.653877582942108     -1.386989272122078
H      -1.600958966552464     -2.410547639093754     -2.354636423841782
H      -2.160951955998367     -3.518759348920421     -1.294003912252041
21

U       0.000000000000000     -0.000000000000000     -0.000000000000000
O       0.319263000156489      0.310119633672369      1.738990007812641
O      -0.295512005671959     -0.260237811706403     -1.750319152758000
O      -2.144213821357419     -0.916008382994430      0.579322538940338
H      -2.837329576821862     -0.680291013878003      1.260518451599674
H      -2.453989820986728     -1.704193118336031      0.047529672282507
O       0.319706694642990     -2.338906718020493      0.372786246693852
H       0.948400250764652     -2.871310681411883      0.939611115816791
H      -0.278860785920459     -2.959250765466641     -0.134057155167173
O       1.145534324723563      2.046055922429758     -0.528279523985936
H       1.556479099539831      2.667468213074922      0.138782060192271
H       1.286031700167244      2.406578448283504     -1.450387975224440
O       2.326523690897261     -0.500590685834621     -0.329504969106958
H       2.716413352360020     -0.894866730006416     -1.161690316776992
H       3.054138768912114     -0.346549201238805      0.338961574011662
O      -1.611097972747176      1.781823146800176     -0.015268113563605
H      -2.231532968464929      1.992531661125382     -0.770690073847774
H      -1.762937677106003      2.429512943678177      0.731352694611708
O      -1.765776168104164     -2.850709557605293     -1.294140650735225
H      -1.725339628696325     -2.627332538474091     -2.268033660056464
H      -2.253556222205799     -3.714851430934950     -1.170328528635179
21

U       0.000000000000000     -0.000000000000000     -0.000000000000000
O       0.318196325715757      0.284637547154593      1.742748188227668
O      -0.312669357258370     -0.273005207172534     -1.746074911596000
O      -2.151921080916605     -0.929689811907622      0.505039748810297
H      -2.868218453596524     -0.692069650135744      1.161130239986134
H      -2.431101253885503     -1.736529911522288     -0.015601667785476
O       0.282235550043835     -2.355716436202658      0.295885890374852
H       0.916450538434814     -2.908620793190612      0.836319161486067
H      -0.353547021259072     -2.956180146061003     -0.189112929387235
O       1.156217300533701      2.040140578174636     -0.515462082064375
H       1.584244910491353      2.652920590816632      0.148836812425459
H       1.285555468684616      2.405268202603675     -1.437391285494971
O       2.319587927094875     -0.516745582463609     -0.338259317765376
H       2.671766769542031     -1.151563649847427     -1.025991885160330
H       3.082676049203938     -0.126151920292681      0.176651459911659
O      -1.604782146390590      1.783947069905927     -0.000269149806166
H      -2.420377327491209      1.828272023529500     -0.577191847445733
H      -1.557561414549608      2.601552814809537      0.573569719899448
O      -1.880182753448082     -3.024518437931929     -1.203929891296668
H      -1.883657677796840     -2.887454729718359     -2.194486030438472
H      -2.353249091329018     -3.877601864789680     -0.983800595689391
21

U       0.000000000000000     -0.000000000000000     -0.000000000000000
O       0.254247370074874      0.174260240923200      1.767263868155065
O      -0.255761392984471     -0.177103759111596     -1.767552643069564
O      -2.165341580730589     -0.963105698825585      0.359190942012121
H      -2.938413981831477     -0.680468933653804      0.927060224179539
H      -2.396022844775278     -1.809686931674975     -0.120482249448434
O       0.264633033888561     -2.374514591194639      0.151628551717181
H       0.953492453651131     -2.943403789373269      0.600892149174232
H      -0.413934555847284     -2.960264244921007     -0.291590772454867
O       1.170155534480553      2.066802412776297     -0.341143550852932
H       1.576340637328178      2.633400787122195      0.375780395192428
H       1.330683517740537      2.491061190301968     -1.232342325696629
O       2.326537765221999     -0.505682604376574     -0.294858414601398
H       2.705748194045490     -1.050380517179375     -1.042858170256289
H       3.067186437396315     -0.199132918805885      0.303026887679009
O      -1.609111750097115      1.779301709276733      0.042152547075850
H      -2.366538470245111      1.888892913480565     -0.601504606669064
H      -1.618565527099838      2.532868318907865      0.699456123020349
O      -1.960812930927925     -3.200897418312864     -1.158823791781827
H      -2.001855610790944     -3.125422482620043     -2.155126472954485
H      -2.416974881977079     -4.042347212645754     -0.869205908991129
21

U       0.000000000000000     -0.000000000000000     -0.000000000000000
O       0.212189879401305      0.062876845351801      1.780144642726662
O      -0.213035865077797     -0.058867205953225     -1.780589226781024
O      -2.182759722461182     -0.965470058111785      0.247791375216724
H      -2.991065501181878     -0.608322001895157      0.715858714418483
H      -2.386262716029770     -1.870795578264304     -0.124998423690373
O       0.239551032663881     -2.382493325179255      0.018055076460260
H       1.004629520747342     -2.944202064048765      0.332917268140286
H      -0.499505457887081     -2.975179603599121     -0.302129993690280
O       1.195454775413249      2.069382443694189     -0.205573587382093
H       1.563079687173832      2.607394903633228      0.552974049357596
H       1.405329275776820      2.525627894629727     -1.070323714643008
O       2.329395473986438     -0.513092520876748     -0.251992487221255
H       2.746657649867458     -0.922614442771011     -1.063277931480590
H       3.038422160133461     -0.320730069022699      0.426445310552476
O      -1.592816436228221      1.788275828447003      0.141885026759635
H      -2.260998934275748      2.022950463702883     -0.564131945324242
H      -1.666540575729064      2.436922353410818      0.899395711111498
O      -2.092884121566548     -3.434096774004225     -0.855993773711742
H      -2.248713567634353     -3.541389474166247     -1.837933415558502
H      -2.491694456659728     -4.210744727172001     -0.368378891388436
21

U       0.000000000000000     -0.000000000000000     -0.000000000000000
O       0.214635123686880      0.025055607796468      1.780983306293906
O      -0.209074347005010     -0.012777809351757     -1.782168384834319
O      -2.181701976346884     -0.960473055388396      0.252471206341715
H      -3.009731590374467     -0.536161741424240      0.618977505244400
H      -2.373087844507966     -1.912174539679939      0.012396771498050
O       0.222538461980811     -2.387458463795255     -0.019438694033220
H       1.039759483668849     -2.929347492381584      0.176790973471277
H      -0.547821424851887     -2.999201252183408     -0.199206337434920
O       1.213014798172696      2.063198365794641     -0.152746641892889
H       1.574142596669479      2.579090611357701      0.624068589755391
H       1.426333532227642      2.546362104945278     -1.001892046915592
O       2.323081960883398     -0.529374687215507     -0.272678037574179
H       2.737892446123650     -0.902001910208635     -1.102787195467994
H       3.033950950071095     -0.369033474392992      0.412125566156020
O      -1.583534269750556      1.795257589172204      0.146741451172869
H      -2.243534449604615      2.042102543371084     -0.562812867522440
H      -1.665915770896713      2.430931383212684      0.914290873581021
O      -2.178246990957074     -3.578520542582917     -0.452623914109881
H      -2.426305401994537     -3.841181416041619     -1.385081039273006
H      -2.509959688528228     -4.270904474538479      0.188134368739294
