21

U       0.000000000000000     -0.000000000000000     -0.000000000000000
O       0.028885461153313     -0.001963321585200      1.830759752626665
O      -0.036912955074489      0.006813324748760     -1.829444228514085
O      -3.885879256588483     -0.007658866154428      1.370473744904436
H      -3.971767406270673     -0.473957589030986      2.250921771075125
H      -4.738614623183397     -0.104805028279954      0.857243759671187
O       0.840791345158258     -2.239035077231793      0.005632688943540
H       0.852729433078500     -2.816628762007828      0.821869797487161
H       0.867242299644448     -2.815503526216612     -0.811058485449699
O       0.818069186884395      2.244479665802420      0.006422346929127
H       0.836354644752181      2.821253446630517      0.823121586416852
H       0.847686356064906      2.821412292145886     -0.809832250577168
O       2.305523810391468      0.002455341334724     -0.787305627559449
H       2.798660421103624      0.004592522881204     -1.657254887936378
H       2.961341073242474      0.002867411407450     -0.032386063668786
O      -2.098585252879357      1.290283721530133      0.086598191245830
H      -1.911437809345241      2.253749038341486      0.278197819847364
H      -2.740674937816128      0.934037041082526      0.765427432784421
O      -2.050174938228053     -1.251901273579925     -0.015789360490618
H      -1.886688966431500     -2.215175147473580      0.197226556519465
H      -2.722116322984483     -0.878468752561229      0.623775278695470
21

U       0.000000000000000     -0.000000000000000     -0.000000000000000
O      -0.015006634466065      0.007674283729684      1.833018172178474
O       0.011900074967613      0.004796149355592     -1.827668198289363
O      -3.608891092218758     -0.042727665505337      1.596444787756824
H      -3.122965212925191     -0.180346204674941      2.459542219979629
H      -4.476504743104841     -0.539431379360233      1.619509337153632
O       0.875705998567501     -2.229200170855668     -0.037894848902031
H       0.912628541501594     -2.773027499188223      0.800489646888508
H       0.876439634741804     -2.838562227090029     -0.830786610871972
O       0.820202493573077      2.241574224503149     -0.033549682562831
H       0.862009410961216      2.788213277514116      0.802774373878077
H       0.824514442047910      2.847979232586769     -0.828693929395729
O       2.315627825944904      0.009037340988679      0.770063831221766
H       2.984156290285090      0.008012811663545      0.026377981748607
H       2.793938557509803      0.008774527403094      1.648254456882773
O      -2.097870466984567      1.278816920634238      0.002095537578728
H      -1.911040020645458      2.241175464074397      0.199479473572683
H      -2.739953916355673      0.918326713738887      0.678686739691385
O      -2.030438056833124     -1.278783370011117     -0.041448414916176
H      -1.841015941145007     -2.242511276703195      0.146561648514331
H      -2.660615037140662     -0.922209036407550      0.648284662517148
21

U       0.000000000000000     -0.000000000000000     -0.000000000000000
O      -0.023862242434564     -0.005043635155088      1.831359544725410
O       0.014079097006309      0.002963663533810     -1.826882011325376
O      -3.486265214848916      0.031065675107366      1.515581639342572
H      -3.131533327273478     -0.367363270262143      2.361406481392572
H      -4.474907624525565      0.158064229426464      1.595940540465019
O       0.856588249392255     -2.235710137942950     -0.026696687779590
H       0.858427116579583     -2.803652931698172      0.796369288670039
H       0.835856578416350     -2.822235542665691     -0.836362141799565
O       0.893026778546104      2.227367884949491     -0.027907607346651
H       0.892725034042772      2.795259316433002      0.795195807175403
H       0.869316344605950      2.813848508754178     -0.837523746775723
O       2.312582078885628     -0.004922572183435      0.782618206617020
H       2.967221686403189     -0.006389063731212      0.026678504212262
H       2.807051625474719     -0.011192718663617      1.651790544395378
O      -1.955858889500851      1.455401501748972      0.093455593024338
H      -2.271248671744469      1.614248056137847     -0.842117524062246
H      -2.650209393346425      0.940722993790055      0.596430156252520
O      -2.008886194033757     -1.361125713129507      0.055440043456430
H      -2.285822693634878     -1.560684796676975     -0.884497373270010
H      -2.740306735233166     -0.861439843600306      0.519485325411123
21

U       0.000000000000000     -0.000000000000000     -0.000000000000000
O      -0.032449456125427     -0.000009965638258      1.834394194132544
O       0.014868243544036      0.000099205702935     -1.830731024822807
O      -2.899892635776213      0.000544034475739      2.114061797176378
H      -2.054661834112057      0.001081369442713      2.648462960338754
H      -3.685474644272047      0.000586571534144      2.732819347528898
O       0.910455822603797     -2.225824715847822     -0.025670463481005
H       0.904151641134306     -2.785941157153625      0.802719438361673
H       0.890259643942617     -2.819851042035507     -0.829862504080418
O       0.908571988168150      2.226199820349441     -0.025454566104868
H       0.902510973251245      2.786341430438405      0.802920132171896
H       0.888600654094617      2.820212279666880     -0.829662464593171
O       2.313230480208331      0.000165922811886      0.781867290636143
H       2.971473296392367      0.000217553096499      0.029061610346453
H       2.803568191381892      0.000332008113488      1.653399792277216
O      -1.947268989282305      1.384506815437518     -0.028665719579955
H      -2.124952166531148      1.843206819071369     -0.899310879900198
H      -2.776903935429224      1.395929050803112      0.529523664653617
O      -1.943381907161039     -1.382860214699193     -0.028082136608886
H      -2.121158469523512     -1.840983851803736     -0.899011655571635
H      -2.772953761966971     -1.394661901050864      0.530193116212786
21

U       0.000000000000000     -0.000000000000000     -0.000000000000000
O      -0.009491426368019     -0.000419614760069      1.833715754656050
O       0.018829128010044     -0.001219283458784     -1.830593992491977
O      -2.792319043553365     -0.001114640917400      2.023120948748084
H      -1.960656967646804     -0.004493728913782      2.578392749997797
H      -3.593058084717817     -0.000018837654792      2.622133291834806
O       0.905766276522046     -2.226958055905656     -0.022373029567696
H       0.897205532437673     -2.786613385301242      0.806308227575146
H       0.883390552100420     -2.821322393286966     -0.826257574391071
O       0.925468926083580      2.222539559849722     -0.024136637650021
H       0.916099333432766      2.781826527825548      0.804784527591865
H       0.902449359918814      2.817221698069568     -0.827767930007318
O       2.322389575095969     -0.002603357118988      0.753568372316867
H       2.977993992463897     -0.003127303587091     -0.001535973722645
H       2.815771571876620     -0.004534907289265      1.623378969151993
O      -1.925111676203479      1.400164281207729     -0.066584727750500
H      -2.101771734034905      1.860967502104631     -0.936326997378715
H      -2.753453612042967      1.416184070095820      0.493409025512580
O      -1.961659829143998     -1.412338658392555     -0.072027580379561
H      -2.139336424367685     -1.874744873871933     -0.940711365997640
H      -2.790996242134113     -1.422313362433645      0.486632977891723
21

U       0.000000000000000     -0.000000000000000     -0.000000000000000
O       0.007545962417099     -0.000677739815594      1.836012518939405
O       0.028754750950695     -0.002311358530694     -1.830124519556079
O      -2.725399535949241     -0.011482724142211      1.895707259430232
H      -1.900182889292027     -0.018507994854757      2.460479896560643
H      -3.532966886672148     -0.010894642894995      2.485482325202626
O       0.898830853686073     -2.228785648225970     -0.017494765205231
H       0.888180691318881     -2.788142017617843      0.811364104604519
H       0.874986541012669     -2.823340270175516     -0.821196358006667
O       0.941554640245531      2.219242711782728     -0.019860908198833
H       0.928981434406414      2.777770462325635      0.809529630913115
H       0.915992841733353      2.814486977660395     -0.822999039778066
O       2.328675443721371     -0.005749692809642      0.728090666917070
H       2.982965504937217     -0.006963515976404     -0.028152047049474
H       2.823558902428369     -0.010100828015445      1.597039129094558
O      -1.900107439467289      1.414332441469117     -0.125917390038565
H      -2.074048007480857      1.878431563192408     -0.994454484246283
H      -2.730467292766919      1.427417411662953      0.431156480810934
O      -1.979953426761340     -1.451672903856694     -0.153007483220774
H      -2.153408822991614     -1.919491849821373     -1.019643888707583
H      -2.812263543866622     -1.457355017930265      0.401273657125753
21

U       0.000000000000000     -0.000000000000000     -0.000000000000000
O       0.049891170470389      0.026236335342451      1.832033938478556
O      -0.010261387100367      0.003721025024536     -1.832671235164929
O      -2.478672935720026     -0.476758439038796      1.853094338284857
H      -1.888834493384103     -0.519283884117950      2.659495106181039
H      -3.329034788471350     -0.970254539935218      2.035704080044067
O       1.223111036197255     -2.124263088339141      0.086883549234494
H       1.156749035183077     -2.727277869811562      0.881848490692395
H       1.234097860259154     -2.673914006787104     -0.748438638634561
O       0.776061313955143      2.258268745938502      0.033306462331998
H       0.749646237290518      2.849836697642181      0.839128776643234
H       0.787956843487716      2.821125427697860     -0.793162443420653
O       2.332189656554507      0.082991513889582     -0.757373375051894
H       2.818976156621071      0.117925037867610     -1.630195551818400
H       2.992869494466035      0.089597647427094     -0.006734639855740
O      -2.088658402059434      1.122765231101229     -0.129948036110982
H      -2.272084480663180      1.611021706548315     -0.983154041640737
H      -2.904495818736571      1.143447518608147      0.447963334717674
O      -1.390040075629110     -2.009044501009874     -0.076268942053421
H      -1.524025713755275     -2.423245489659085     -0.976538562654906
H      -2.257477446466710     -2.005070897048469      0.421261577760099
21

U       0.000000000000000     -0.000000000000000     -0.000000000000000
O      -0.086253029886364      0.000867950565749      1.841083426507858
O       0.748923630838725      0.053160994836300     -1.712236701453056
O      -2.234462452938415     -1.445475513741004      1.124099322200557
H      -1.725304270198593     -1.483568789997950      1.983928867664711
H      -3.099012326699053     -1.937462043967259      1.226582344484239
O       0.906714354076647     -2.220592960433240      0.102683858575864
H       1.335192177401912     -2.403898363410830      0.987447038278584
H       0.840482025559115     -3.071586869890579     -0.418298525699900
O       0.772405099298845      2.264621201136109      0.054031224462127
H       0.738623582951433      2.832241582803087      0.876628277380203
H       0.762786324592795      2.850817903365906     -0.756080437883297
O       2.275801681534609      0.000008191382102      0.843027907537021
H       2.963096220477371      0.007140531997838      0.116684086432444
H       2.730477515160957      0.043773857545759      1.732608962180968
O      -2.151519437071300      1.109212929370175      0.028862002953969
H      -2.445715705977601      1.292344793038285     -0.909173857699053
H      -2.824057895983620      0.523108833284865      0.480718185644728
O      -1.372837415280226     -1.353936924925035     -1.384156530693872
H      -1.225111458344899     -1.652192409710777     -2.327141529218645
H      -1.965140088441098     -2.009716342821616     -0.916042336901689
21

U       0.000000000000000     -0.000000000000000     -0.000000000000000
O       0.064512625699983      0.055100202339236      1.843085255701998
O       0.135167131277766      0.104305891776498     -1.826758102694617
O      -2.304481286024648     -0.681641474067467      1.520507304542997
H      -1.825417136946823     -0.715542314207413      2.397632309377624
H      -3.175174713684078     -1.167442923787746      1.597253030680352
O       0.042533400801530     -2.280422152474066      0.858619998366671
H       0.508515221725423     -2.363550128812274      1.739500627123126
H       0.156673925562486     -3.127697130175985      0.339874345114996
O       1.040412493622889      2.165742771427822      0.029509236982153
H       1.030473995969564      2.738704958356379      0.849030779477798
H       1.045466690796224      2.747454456396049     -0.783870115265222
O       2.272231341145365     -0.713830753910755      0.013066040718156
H       2.869039248141209     -0.712394170674702     -0.789316821995054
H       2.829777415155115     -0.720841491947641      0.843182433104485
O      -1.935260829004991      1.374233718438077     -0.102076457239851
H      -2.116099066842067      1.850596034065126     -0.962527778341991
H      -2.765300133076508      1.366671449742954      0.455577168040803
O      -1.645398418375240     -1.506044239942742     -1.129116739179741
H      -1.995850819923828     -1.359376782676023     -2.054142020578981
H      -2.294572353816346     -2.063066822907250     -0.611140828918024
21

U       0.000000000000000     -0.000000000000000     -0.000000000000000
O       0.752783912076008     -0.007998214954167      1.721010323016862
O       0.052968194813321      0.107928747109495     -1.837970258998747
O      -1.582062084119335     -1.301702374740482      1.578587759405446
H      -1.180368893767709     -1.250719565200296      2.492941812251784
H      -2.506536905911537     -0.921003112443469      1.598943976116477
O       0.914494821205002     -2.211075347313168      0.169249395761444
H       1.366923567855291     -2.378032391558114      1.045282257349091
H       0.911286380295606     -3.053161438944849     -0.370084193204987
O       0.763604851867199      2.277833208535483     -0.002265331656430
H       0.739203048340047      2.855363523688499      0.813739133444026
H       0.729289467605649      2.853509170167796     -0.819222883553525
O       2.343930967129886      0.064903248885499     -0.722744483557550
H       2.855735057826362      0.056503629073138     -1.581805610098241
H       2.983255254031549      0.062631910909963      0.046189386942040
O      -2.211613180605593      1.067089196727319     -0.047508503310698
H      -2.255997077801001      1.643251778577319     -0.863637628477599
H      -2.243352610499262      1.643115011745270      0.769306573082319
O      -1.485148095816653     -1.538569019622581     -1.121238266202779
H      -1.827612071650038     -1.363647374555223     -2.044342184157481
H      -2.133169759069078     -2.120610488544210     -0.630019727860512
21

U       0.000000000000000     -0.000000000000000     -0.000000000000000
O       0.764114830039296     -0.000053563858604      1.718022098237990
O       0.034910455108565      0.086108062904183     -1.838686925052993
O      -1.504666562600391     -1.297835848613010      1.495741899103536
H      -1.197361319038925     -1.214855428303523      2.443728047274958
H      -2.463522017429547     -1.021478738332491      1.430757559899592
O       0.941691490105825     -2.210123053112893      0.104128554485365
H       1.385751949910686     -2.385623388918206      0.982769516522828
H       0.920356671258687     -3.053415663008144     -0.432902542938998
O       0.760961924033508      2.278707702587021     -0.011141829976318
H       0.735421618275953      2.858430135365972      0.803271820274380
H       0.725397544255594      2.852060529413635     -0.829678152237550
O       2.336973594138953      0.069784309444558     -0.741843913284750
H       2.842754898200705      0.061932519747859     -1.604469916753318
H       2.981683870538532      0.069928155128411      0.022583087031956
O      -2.222409065157429      1.048617040944279     -0.067085570660121
H      -2.266869657998793      1.626951793504775     -0.881672686728737
H      -2.256571334837810      1.622296824650109      0.751281367270242
O      -1.515780648292927     -1.590342282907688     -1.165703146711809
H      -1.838764948917056     -1.382892340036585     -2.089091289776857
H      -2.184619286764940     -2.170732038751737     -0.701157554763947
