21

U       0.000000000000000     -0.000000000000000     -0.000000000000000
O       0.182995578342567     -0.000650367788213      1.785481946245698
O      -0.177937399166517      0.000084971172315     -1.785326124921319
O      -3.946255523715252     -0.000751556159012      1.371192268607732
H      -4.040893816042099     -0.000926618244070      2.366703977719547
H      -4.853286734747241     -0.000150938965873      0.950129302446102
O       0.733206505990498     -2.282232543674173     -0.046100463558202
H       0.759198021094119     -2.893848756993350      0.744627080383281
H       1.094253222325318     -2.758464029271419     -0.847879012005143
O       0.735616818374692      2.282621445046774     -0.046361044710647
H       0.761676465258295      2.893438497705057      0.744981752682588
H       1.095294755321854      2.760121364255813     -0.848000370610266
O       2.381753123900795      0.001651297620678     -0.272730291358380
H       2.866064834605342      0.000835646605786     -1.147625428839356
H       3.045175276031990      0.002166187661309      0.475514844242153
O      -1.929893594052889      1.405495402719098      0.222703358683352
H      -2.061334695508402      2.343735196541278     -0.097342460124949
H      -2.771777355688304      1.078798007581071      0.652238623713632
O      -1.930403110737948     -1.403743531517799      0.223311614769670
H      -2.060943767510968     -2.341770905663774     -0.097723869689723
H      -2.772805178922872     -1.078083035309824      0.652618028333849
21

U       0.000000000000000     -0.000000000000000     -0.000000000000000
O       0.044392613712364     -0.000486129756234      1.794385620910650
O      -0.048012858952025      0.000226362873546     -1.793453340279426
O      -3.848222802378987     -0.001867665610426      1.413041427100100
H      -3.860683173406398     -0.001393664942816      2.412963681316510
H      -4.786804250488521     -0.000697745124426      1.067985639508197
O       0.735926895803463     -2.282623256886698     -0.008831659865245
H       0.696580831792073     -2.902694416867468      0.774726662027205
H       1.150258613333768     -2.754655491641669     -0.786979972978250
O       0.734022504050693      2.283262735604012     -0.007405432295785
H       0.694370399966083      2.902605894928205      0.776713029188187
H       1.147966188937568      2.756255997818463     -0.785176606640789
O       2.395705188485334      0.001049474398169     -0.079094042765642
H       2.949863588991786      0.001140289632017     -0.911505274610050
H       2.995790371262944      0.001619550740071      0.720841859931398
O      -1.940568071082110      1.401668182146636      0.094766413598734
H      -2.097866235673355      2.304178943752831     -0.306147059112312
H      -2.764816925659387      1.102120119387073      0.575271131395594
O      -1.940400198980661     -1.404980901095559      0.094905386254193
H      -2.096865933560196     -2.307831582344462     -0.305568234938112
H      -2.764779359837380     -1.106146954783975      0.575631162219054
21

U       0.000000000000000     -0.000000000000000     -0.000000000000000
O      -0.067982535281467      0.000467275956477      1.793987171825015
O       0.061685388361417     -0.000581366558310     -1.793246512180954
O      -3.569761567571667      0.001254448434832      1.639932845371033
H      -3.392392554675630      0.001551448350178      2.624077217429999
H      -4.556744273341908      0.002235238173141      1.479109412495280
O       0.737187910727065     -2.282345766671627      0.023574946934096
H       0.532817982406272     -2.947205375699550      0.742041809552959
H       1.309186724045554     -2.711924085831802     -0.675195276579871
O       0.738005903567778      2.282068567618381      0.022811846172782
H       0.533405825261996      2.946677975457673      0.741444675209123
H       1.309971155314493      2.711979408479153     -0.675781325640901
O       2.397098645207021      0.000313413298139      0.080188368401956
H       3.009049405577690     -0.001509214366977     -0.710705394950717
H       2.938778826957776      0.002173269385780      0.920770976855047
O      -1.939007011013462      1.404984968931656     -0.014823761511108
H      -2.156812387766050      2.237964248857057     -0.523455590118622
H      -2.716749461830722      1.153117282277629      0.561092333607193
O      -1.940266203598922     -1.406750857266364     -0.014253281920973
H      -2.159060554897629     -2.240587113440389     -0.521053173129983
H      -2.717416884545952     -1.153126556544410      0.561690754585064
21

U       0.000000000000000     -0.000000000000000     -0.000000000000000
O      -0.082671899677329     -0.000140730118875      1.793017684748937
O       0.091081737224235     -0.002013303923776     -1.792293376911146
O      -3.301899133356991      0.000341331446247      1.795566831160905
H      -2.994504613480734     -0.000099114235123      2.747148890238127
H      -4.301523901038789      0.001171772812569      1.768187382586262
O       0.742446572653838     -2.280904962420496      0.060342456649661
H       0.479499232537708     -2.952223647698484      0.753299828442823
H       1.368766927073212     -2.704934593901200     -0.593814776182270
O       0.743560568925800      2.280441944531704      0.058215479907341
H       0.484569726942779      2.951320820535113      0.753086171116381
H       1.366490894611596      2.704762677423242     -0.598982910975789
O       2.399180355961917     -0.000457759906304      0.070933022743841
H       3.002262818218238      0.001080922559813     -0.726744340715298
H       2.950211696542041     -0.002004325044991      0.905416138112117
O      -1.928767396973000      1.412321007158012     -0.077234447449839
H      -2.174874016265258      2.207241980821592     -0.631790285549378
H      -2.676232121940747      1.200917611413557      0.552531452862813
O      -1.930990569842834     -1.418388813206497     -0.075399220694028
H      -2.176584779341260     -2.214359948313889     -0.628674411116203
H      -2.678513478113241     -1.206569049439487      0.554157678472871
21

U       0.000000000000000     -0.000000000000000     -0.000000000000000
O      -0.058628424446415      0.000981691124998      1.793883239248473
O       0.116098884023056     -0.004048749370017     -1.791899335386842
O      -3.069054896029012      0.001836754046600      1.869104698189621
H      -2.681122210428675      0.000668206202765      2.790791665624252
H      -4.067339174928512      0.003845690317664      1.927623606904383
O       0.749512620664499     -2.281013412917225      0.051836702859250
H       0.473781670738515     -2.959747902327754      0.732492222294407
H       1.383333936813578     -2.699634625304219     -0.598568416842842
O       0.754443250582842      2.279470919441756      0.044649957177136
H       0.481191629631623      2.961269059132278      0.723240296308246
H       1.389197628349335      2.694006608990556     -0.607459728379347
O       2.401556331350315     -0.002358678556279      0.103451707754818
H       3.021394479745594     -0.009297863852595     -0.681247290270116
H       2.934792982312739      0.003676291968741      0.949396300030897
O      -1.915642285497544      1.420076625180880     -0.143272738852286
H      -2.176178345893616      2.171866461581374     -0.749022689837189
H      -2.646609269318718      1.257360923725524      0.519457122451148
O      -1.924101632695941     -1.430371999026285     -0.142640761900758
H      -2.183487437226762     -2.183798350511414     -0.746849117764615
H      -2.655407808073146     -1.267278135375988      0.519621776292958
21

U       0.000000000000000     -0.000000000000000     -0.000000000000000
O      -0.041725951657006      0.008459089563752      1.793724636818693
O       0.175798459479406     -0.009823036612745     -1.787958614740291
O      -2.926858352329692     -0.001221125214325      1.782266854871069
H      -2.560567528007016     -0.002211475544661      2.712766748059261
H      -3.926232501657391     -0.005025273734774      1.817435564110587
O       0.746967886033878     -2.283024186540060      0.109539586104323
H       0.407457095600778     -2.967342549891146      0.754861831776967
H       1.448097546488782     -2.693548658836973     -0.473458575878827
O       0.764818983713246      2.277794181019754      0.082159866919781
H       0.450204659418490      2.965728247146229      0.736196981777377
H       1.449616475363471      2.682558065604397     -0.523825770835364
O       2.406261732946506     -0.008932268351365      0.106754581186889
H       3.024368274890310      0.002474570386986     -0.679256987962237
H       2.941362331251554     -0.022517419723813      0.951433687922558
O      -1.887370916160744      1.436760814318103     -0.290821815981263
H      -2.104821200112107      2.146392808121989     -0.960999260677363
H      -2.649602350273694      1.337559510613097      0.348836172472992
O      -1.900273023666277     -1.445133910341009     -0.300634650868759
H      -2.115561358028348     -2.148008226590784     -0.978586440190106
H      -2.663445899713172     -1.354214540259061      0.339131579414001
21

U       0.000000000000000     -0.000000000000000     -0.000000000000000
O       0.084182821081202     -0.021644880864360      1.793214858994509
O       0.177894880390903      0.013269912539991     -1.790066524899721
O      -2.722026294625927     -0.005605528096698      1.788569285607533
H      -2.389292522155804     -0.008267851170783      2.731586331420411
H      -3.722016082545359     -0.010077544253566      1.787917266938481
O       0.774898879933215     -2.278547400556459      0.050612407862062
H       0.797702748132243     -2.857710971654181      0.865504757506171
H       1.128581271450163     -2.790512835326609     -0.732203125665131
O       0.769720191337094      2.279481079880934      0.103840825496404
H       0.420204658120697      2.975602551466080      0.730940330231169
H       1.485632146867666      2.677095360850707     -0.470069407464538
O       2.420153390272303      0.009425930898866      0.040655281591498
H       3.014097554421193     -0.246407794616120     -0.722089390472883
H       2.980592517895884      0.260166968373628      0.829982157071232
O      -1.863016025457057      1.457373247151717     -0.382523139941576
H      -2.024414596045297      2.103765920615009     -1.128262379290728
H      -2.647102732076254      1.461933521115210      0.238111406635104
O      -1.872041411342521     -1.456111542321569     -0.402414380786153
H      -2.029950024080946     -2.104147528734828     -1.147474264511227
H      -2.655570389154053     -1.465121666388518      0.218875534304952
21

U       0.000000000000000     -0.000000000000000     -0.000000000000000
O       0.201090499114641     -0.035760686441669      1.785329690261430
O       0.189117947352904      0.035750134558882     -1.790875305178687
O      -2.549350335140777     -0.009199174034525      1.742818775766617
H      -2.334726052221681      0.100098147917263      2.713380732879933
H      -3.529627129247330     -0.174685710756260      1.634783535682526
O       0.772773953875049     -2.283820506444998      0.040222317675757
H       1.365856156016710     -2.670255217403958      0.746566225180355
H       0.563864016598497     -2.986002040835289     -0.640437458474123
O       0.794672432980670      2.273418228329239      0.116773017102594
H       0.546699153534555      2.933366046629614      0.825982527615047
H       1.419412768508016      2.703459885158875     -0.534965954078662
O       2.433217327077809     -0.010736751036880     -0.026085560970857
H       3.001090763376973     -0.360059973709682     -0.771399619906597
H       3.019966922199943      0.333741959199779      0.706757758448581
O      -1.832708837908714      1.489575695585563     -0.459858071267310
H      -1.934294192852460      2.131342764104258     -1.219999798464203
H      -2.647449997580562      1.526584798351711      0.118784451408839
O      -1.836606188883597     -1.457750055930867     -0.545577841802472
H      -2.095201824177179     -1.743833120881521     -1.468228792788568
H      -2.478465734192578     -1.845679096848324      0.115880685475400
21

U       0.000000000000000     -0.000000000000000     -0.000000000000000
O       0.220280008262901      0.276347852742285      1.765613465494393
O       0.265724198706731      0.017437013573138     -1.783457409832276
O      -2.369242490207258     -0.519909350731062      1.665309455056822
H      -2.204999980172894     -0.530497465391808      2.651672618260692
H      -3.344934001908249     -0.649310802347704      1.488444143833448
O       0.517144122834439     -2.281827644775372      0.544338016037006
H       0.861777400600509     -2.589587447117837      1.431193025561303
H       0.448076019602704     -3.063235119722190     -0.075849016408215
O       0.893307293886375      2.253354820933245     -0.142313116777989
H       0.927510593309193      2.907947292591303      0.612894689297391
H       1.309048175892593      2.660609725487910     -0.955518479367823
O       2.419292360742439     -0.213770406428016      0.016479650763512
H       2.986868942858757     -0.401589783620797     -0.785131667135676
H       3.003400314633162     -0.109288261032723      0.821402864179047
O      -1.848870799575918      1.479196882233466     -0.322430968151914
H      -1.943629950951235      2.139814950715817     -1.067148680325646
H      -2.651591500284284      1.529367124057261      0.271810080152234
O      -1.763227418731695     -1.452062810696797     -0.834533367388001
H      -1.983062860708758     -1.573224472700088     -1.802516957182451
H      -2.382207059641085     -2.008245215203461     -0.279983696883304
21

U       0.000000000000000     -0.000000000000000     -0.000000000000000
O       0.294959235499618      0.324807623079903      1.749091872421691
O       0.279609545467537      0.060583696469615     -1.782421448962110
O      -2.179865212436416     -0.681388053548019      1.608926351564985
H      -2.044068964126169     -0.761061229603694      2.596454358237233
H      -3.150266579403264     -0.794732940889193      1.395679725560042
O       0.442658133551252     -2.284662184925499      0.585842292970453
H       0.525277202453337     -2.632790169342903      1.519641519742048
H       0.594627612404180     -3.030563100239898     -0.062646027687917
O       0.921304321847075      2.254346972346386     -0.168661199631056
H       0.971363993176383      2.915614335613225      0.579816925356258
H       1.326970101774137      2.651405283516175     -0.991935134920619
O       2.416795920167263     -0.286608383004641     -0.013838512420393
H       2.984779251940215     -0.396284070619505     -0.829538321403026
H       2.997576002456265     -0.293864972459234      0.800189643066791
O      -1.846398495373879      1.487416558245272     -0.286500873622732
H      -2.064355366504215      1.965198714216009     -1.137511457436487
H      -2.509054761400058      1.741985902603902      0.417829391245292
O      -1.742543207071111     -1.433625925829046     -0.962531736964554
H      -1.992369184170719     -1.433874330944507     -1.930822457492808
H      -2.293601860095003     -2.111530468998120     -0.475931499317446
21

U       0.000000000000000     -0.000000000000000     -0.000000000000000
O       0.385531627275779      0.327160088820793      1.733318958125609
O       0.248465227443046      0.063925118236490     -1.788464070704264
O      -2.100452324920430     -0.572082671104899      1.514622501411067
H      -2.014633012521061     -0.678887384025588      2.505191933059969
H      -3.060892956314808     -0.663276010969504      1.251492175657632
O       0.470592425425520     -2.279073993097184      0.606483470907654
H       0.683812711703623     -2.590962351540284      1.532368324108716
H       0.514465038411770     -3.053598059974282     -0.024537656835245
O       0.928308726420350      2.255190149057205     -0.187294304833181
H       1.153016027231309      2.853240992153575      0.582018257155751
H       1.163207574614013      2.712744340377387     -1.044887852571634
O       2.421703901693650     -0.299314703011937     -0.097821892186388
H       2.960191785345038     -0.406954596494166     -0.933551784251872
H       3.030855491490789     -0.311788675209331      0.695133806869515
O      -1.829338754125204      1.496423625096765     -0.404591734877178
H      -2.073338389571993      1.862269734030910     -1.302712440840234
H      -2.448046745845923      1.869689951287192      0.286691615647928
O      -1.703040400296001     -1.516846224605172     -0.978980654712879
H      -1.951025680517431     -1.510515645400142     -1.947723770590576
H      -2.221281630110961     -2.229977367736110     -0.506889561366861
21

U       0.000000000000000     -0.000000000000000     -0.000000000000000
O       0.412668716997858      0.310995456520913      1.731315326110677
O       0.253296395460340      0.073137181589204     -1.787330964499284
O      -2.040553245650325     -0.596459734787939      1.401771423769593
H      -1.993345653996994     -0.727409461816760      2.392035839105906
H      -2.987693927112815     -0.696791516522237      1.097045213717370
O       0.461325718328494     -2.289515819252568      0.564844222785118
H       0.633541242389121     -2.626268097795676      1.490554607391745
H       0.547962081924298     -3.043940617095287     -0.085799585225739
O       0.937010655483634      2.253862027462681     -0.172053377981344
H       1.253567086710806      2.806287350075088      0.599061586719313
H       1.079155206078669      2.758041342845200     -1.023873866509620
O       2.424119780262370     -0.312430718900202     -0.110558134017205
H       2.961593838794192     -0.366694829741150     -0.952090689941201
H       3.032877479898681     -0.387806342165344      0.679209286525640
O      -1.817064015319680      1.506088026564287     -0.450760563553824
H      -2.126650603239129      1.767430683091091     -1.365012257815260
H      -2.358059908400380      1.991757494616907      0.235860592158189
O      -1.695278787359535     -1.560140178483375     -1.084739139651903
H      -1.916638285744064     -1.521892912543254     -2.059181092321766
H      -2.193425161005085     -2.315605089825299     -0.659153709738090
21

U       0.000000000000000     -0.000000000000000     -0.000000000000000
O       0.346084758844790      0.343473379102204      1.739572521020767
O       0.300738918820252      0.018571752087582     -1.779873813257361
O      -2.055052968239133     -0.628235607063251      1.240567181606136
H      -2.080853360811774     -0.772797335980849      2.229726545043319
H      -2.974824850628282     -0.737478703008486      0.863624705418292
O       0.447714429173642     -2.282453997789541      0.584471486237508
H       0.559864545719870     -2.625430738516240      1.517096441232365
H       0.568644523113608     -3.034105661647725     -0.063907792116524
O       0.941146205652647      2.246814345752767     -0.194029523174675
H       1.419862825860621      2.733547655836890      0.536669513632688
H       0.936146829762960      2.808705683759833     -1.021225467623958
O       2.427582379575207     -0.299062591652822     -0.023120422205200
H       3.001290037749938     -0.269254678820525     -0.841637991524422
H       3.001930478579508     -0.451743029535678      0.781126396289000
O      -1.797934730887357      1.493099679879141     -0.567108185637367
H      -2.177305687159211      1.616204381804530     -1.484126675037248
H      -2.265522176944548      2.103934133869386      0.071830974305232
O      -1.658204649082442     -1.674849690575428     -1.214729877751426
H      -1.817371293387171     -1.644693439506367     -2.201520929525930
H      -2.144713094783544     -2.455440253486152     -0.822316950650118
21

U       0.000000000000000     -0.000000000000000     -0.000000000000000
O       0.357991564606728      0.405911570724343      1.722436572159545
O       0.241224611974564     -0.095936202243892     -1.784382141263177
O      -2.019521122782036     -0.649602875934838      1.225489397954227
H      -2.061411790334499     -0.758942752604868      2.218610721530452
H      -2.919283899976479     -0.836771431400757      0.831287829438645
O       0.426988906350554     -2.283177031817414      0.566929168717622
H       0.786333682149045     -2.593361340153170      1.447075194652296
H       0.290518219312481     -3.070962457601816     -0.033712050731266
O       0.950653391517680      2.218476799255443     -0.316872975945567
H       1.280428515616812      2.813951081411443      0.415696984410575
H       1.094905397770788      2.665115594235544     -1.199882118316515
O       2.418959041736343     -0.312645785652735     -0.046063883594707
H       2.944740572905500     -0.623789835640173     -0.837735003213727
H       3.040244867138348     -0.130729350318446      0.716110856022013
O      -1.805692116239966      1.473865065711455     -0.584362251085675
H      -2.148096821899755      1.623373540087620     -1.511943101271655
H      -2.316649821455876      2.047288797618941      0.056034069301774
O      -1.761465418889925     -1.782528524541625     -1.227210261346015
H      -1.890921151336663     -1.745607297812696     -2.218107852600283
H      -2.277783946864531     -2.552376877573240     -0.852045376255944
21

U       0.000000000000000     -0.000000000000000     -0.000000000000000
O       0.438072601171578      0.346011731289713      1.714893693436403
O       0.042774670129896     -0.070493803565599     -1.798747203906544
O      -1.978325817748414     -0.708483872722970      1.223945818923285
H      -2.038933495203009     -0.766528419981439      2.220418367449896
H      -2.844122646495418     -1.003274204885859      0.819601273523044
O       0.409271350513412     -2.311579720614314      0.447342308014598
H       1.041184054377515     -2.664755606000656      1.137235871310222
H      -0.025253760866882     -3.075905023919281     -0.029097361101769
O       1.021702001795097      2.177410557565431     -0.344205753836636
H       1.255408424216535      2.826964080016651      0.379300659120557
H       1.289605781578939      2.555090285642300     -1.230538415864451
O       2.386066282700349     -0.375906746523869     -0.237140438761880
H       2.833927514696873     -0.742542005772295     -1.052615088000221
H       3.075810676527364     -0.164367173979781      0.455321603831120
O      -1.770966136483019      1.585541581211953     -0.350169191920732
H      -2.002248761133465      1.990530226825464     -1.234755278437435
H      -2.377523124532044      1.954408134288923      0.354122002309332
O      -1.870366009109492     -1.906056065068158     -1.235650018997430
H      -1.950585847586652     -1.841456934924811     -2.230331741911559
H      -2.430810482205691     -2.665222516489206     -0.904639004659993
21

U       0.000000000000000     -0.000000000000000     -0.000000000000000
O       0.345814055195461      0.393136249140875      1.723690191604997
O      -0.163261175414063     -0.052696024616843     -1.789059056147086
O      -2.083977604771025     -0.770478482521600      0.925033956937795
H      -2.262713748616823     -0.902209286163486      1.900072615789329
H      -2.897840618804324     -1.019974797332444      0.400268692000752
O       0.469388669079531     -2.243327681188843      0.734668673536395
H       1.096520003070257     -2.565850761082730      1.443671602206492
H       0.004861438383115     -3.025573052588030      0.319570334746575
O       1.170442189097978      2.092425678578032     -0.413833920848842
H       1.273193519669478      2.834771449186125      0.248257402856629
H       1.614804095031560      2.347751593327101     -1.272525468386505
O       2.337717567869892     -0.468153711184407     -0.363385287685844
H       2.697098900727782     -1.138566197667461     -1.012532540287974
H       3.097353894209545     -0.020914652238709      0.108769216537681
O      -1.610321672020634      1.792608450992013     -0.085510547253176
H      -1.774484582336777      2.372994537779217     -0.883133596782444
H      -2.210279223021985      2.076506694703885      0.662455176703328
O      -1.414531395300017     -2.445453250308958     -1.244216413020483
H      -1.281408077871156     -2.526124401870192     -2.232027299608862
H      -2.126869531062186     -3.082968374206248     -0.950705174494423
21

U       0.000000000000000     -0.000000000000000     -0.000000000000000
O       0.297061757836042      0.257162182499989      1.755559168489539
O      -0.159112203550888     -0.041180355324289     -1.788130808607903
O      -2.129848524819588     -0.855904250183841      0.728138650330556
H      -2.678358222201485     -0.611516298978030      1.527770841518135
H      -2.600091934401782     -1.567572466842877      0.206219609537964
O       0.374602290620892     -2.321417529510203      0.450262484377648
H       0.965729045618885     -2.748383386574535      1.134564549570254
H      -0.100090040645721     -3.031469921265151     -0.069826730661219
O       1.184158150686189      2.088115066810347     -0.301016806501635
H       1.408259792460119      2.744115521586970      0.419706342486305
H       1.516383140878387      2.431594962918984     -1.179451844999642
O       2.338530516678396     -0.477988566488528     -0.324029449943539
H       2.706081962045492     -1.128458020538946     -0.988706382261722
H       3.091676583091674     -0.053643705382281      0.178665727573538
O      -1.606992942697474      1.791283730490037     -0.033793245897871
H      -2.282873100748469      1.935825789940847     -0.756492080131523
H      -1.703971030062977      2.504196689127087      0.660721234857064
O      -1.608079381415290     -2.422117655181991     -1.475310393982300
H      -1.580747594459620     -2.168631004380726     -2.442263077047696
H      -2.084769793720194     -3.295207826322472     -1.372939480757575
21

U       0.000000000000000     -0.000000000000000     -0.000000000000000
O       0.307444808475703      0.300981061038224      1.744476299219451
O      -0.241220400275987     -0.176903589859337     -1.769528335298465
O      -2.144761129894668     -0.883324192444711      0.642928183373086
H      -2.779476109970267     -0.649657180598513      1.379499036477186
H      -2.518251859229912     -1.642057886084185      0.109235521594015
O       0.341206085208010     -2.323650009820044      0.436451441635723
H       0.932108975857093     -2.809491549536740      1.080494741506367
H      -0.197887035405399     -2.984843146768678     -0.085278606338630
O       1.164219833871159      2.064580573838989     -0.436504680244912
H       1.578092790940799      2.657842593113937      0.253965704270053
H       1.312332743515584      2.456277908561707     -1.344599259001873
O       2.327247871452447     -0.496487118115418     -0.340628099637877
H       2.681199486084831     -1.134862763699258     -1.024144587825649
H       3.089262104002745     -0.100099245434005      0.171437290504715
O      -1.607754687066359      1.787089260072615     -0.039975928784471
H      -2.418152100351309      1.819231817920255     -0.624974124094571
H      -1.569163704770867      2.613496433201323      0.521773054558523
O      -1.667524348674797     -2.653770207435191     -1.386662295076027
H      -1.600863183464320     -2.410220863707269     -2.354257254871953
H      -2.160779339022219     -3.518689831081735     -1.293853032992527
21

U       0.000000000000000     -0.000000000000000     -0.000000000000000
O       0.319176345866549      0.310386544424435      1.739326534637789
O      -0.295406147706768     -0.260218536495689     -1.750766936796798
O      -2.144064470160699     -0.916392046232743      0.579217635492964
H      -2.837094492073042     -0.680543763275217      1.260455461919363
H      -2.454002345055573     -1.704545239559371      0.047472341621275
O       0.318862268333634     -2.338369478550029      0.372540379347092
H       0.947718223590235     -2.870356071379989      0.939576932478791
H      -0.279393842895301     -2.959101754186044     -0.134195318389871
O       1.145410045264774      2.045997629038025     -0.528164487546734
H       1.556441620883931      2.667632326753181      0.138636342117282
H       1.285770841546515      2.406222249557660     -1.450410154188026
O       2.326007956656025     -0.500789067901060     -0.329620637897960
H       2.716117348780697     -0.895362554853928     -1.161561997351842
H       3.053498743746490     -0.346174117619062      0.338848786868642
O      -1.610932991937175      1.781151226734959     -0.015274023913684
H      -2.231451092645422      1.991570033619081     -0.770708476664479
H      -1.762610668070032      2.429198707363401      0.731069292137358
O      -1.765703466882636     -2.850929217103665     -1.293721811524968
H      -1.725332111598384     -2.627667741691272     -2.267644019542218
H      -2.253425161791387     -3.715085306165450     -1.169779074534152
21

U       0.000000000000000     -0.000000000000000     -0.000000000000000
O       0.317993503842918      0.284592337930963      1.743160706054817
O      -0.312691783279789     -0.272912664791534     -1.746432541691922
O      -2.151941444701672     -0.930156313645268      0.505263815299112
H      -2.868222263807509     -0.692284315569540      1.161281117443296
H      -2.431119849798487     -1.737216625222525     -0.015037128006222
O       0.282556298750044     -2.355335641084828      0.296512595119106
H       0.916805322054573     -2.908458130360430      0.836682650096993
H      -0.353366119360458     -2.955596905778930     -0.188553474867581
O       1.155639456915145      2.040186647889758     -0.515622168893189
H       1.583720028861311      2.652958945112573      0.148649714960491
H       1.285019012183763      2.405256602247025     -1.437568403282200
O       2.319265947784277     -0.516884773083211     -0.337983868412054
H       2.671468114104618     -1.151626048256235     -1.025775368527447
H       3.082328053782268     -0.126452149468274      0.177087572076608
O      -1.604465875830614      1.784199702544777     -0.000233980165539
H      -2.419869043550507      1.828166977835356     -0.577455387232089
H      -1.557766286683019      2.601868301911301      0.573557976891575
O      -1.880504281495814     -3.024709720239296     -1.203716467797242
H      -1.883721353301425     -2.887258755289144     -2.194219815940634
H      -2.353620935857742     -3.877883109439042     -0.984044441069221
21

U       0.000000000000000     -0.000000000000000     -0.000000000000000
O       0.254145122467945      0.174385982309153      1.767657012184533
O      -0.255924706010769     -0.177322800964805     -1.767928323567928
O      -2.165581882548827     -0.963535321427158      0.358886467115505
H      -2.938206210914807     -0.680865720460660      0.927348905546100
H      -2.396787339866586     -1.809932248510754     -0.120859588970350
O       0.264411625549702     -2.373906335253484      0.151156756029555
H       0.953262119361577     -2.942416412553201      0.600913678359614
H      -0.413785495039451     -2.960029554791545     -0.292135740120472
O       1.169774623125216      2.066084661268147     -0.341194450634411
H       1.575851298861360      2.632664049544719      0.375805919102753
H       1.330317537688167      2.490437691586705     -1.232345660162340
O       2.326225513006208     -0.506040788958719     -0.294679649667740
H       2.705610130284567     -1.050504010285550     -1.042761939790266
H       3.066765283759112     -0.199432734396389      0.303310608455868
O      -1.609012623212039      1.778810737672390      0.042329260905530
H      -2.366240966628649      1.888377723924128     -0.601565382223491
H      -1.618659537616532      2.532410576595875      0.699591932762810
O      -1.960952877300916     -3.201163196223019     -1.159019351730626
H      -2.001978399361399     -3.125607164249679     -2.155316592804850
H      -2.417148044132976     -4.042620437284398     -0.869475432394646
21

U       0.000000000000000     -0.000000000000000     -0.000000000000000
O       0.212225464846065      0.062884987400504      1.780629259529775
O      -0.213102744360214     -0.058885266076147     -1.781052259849345
O      -2.182699267520516     -0.965642150655158      0.247968432764227
H      -2.990891000968455     -0.608240077730546      0.716038812360722
H      -2.386477136028395     -1.870918747847138     -0.124790018357803
O       0.239768045825198     -2.382434676114545      0.018137466857424
H       1.004874784139217     -2.944106179828438      0.332997437165270
H      -0.499237907041898     -2.975156162170603     -0.302099073210218
O       1.195277458387221      2.069286987607649     -0.205645018993803
H       1.562912325875363      2.607285152432250      0.552907931598533
H       1.405163829926274      2.525535079692562     -1.070390871548788
O       2.329285318881168     -0.513033959872104     -0.252148395669766
H       2.746426851242079     -0.922666821316810     -1.063439872763057
H       3.038359728049657     -0.320952984197621      0.426319275664909
O      -1.592531933829872      1.788274541134416      0.141691870498951
H      -2.260833451237374      2.022795599840147     -0.564263478552512
H      -1.666514788522893      2.436746379728588      0.899326882732259
O      -2.093052813532633     -3.434039154106189     -0.855968779171048
H      -2.248716460083966     -3.541159566364509     -1.837953527738942
H      -2.491930684377307     -4.210781121708792     -0.368558931183491
21

U       0.000000000000000     -0.000000000000000     -0.000000000000000
O       0.211887673623073      0.026509807817528      1.781418006202061
O      -0.206582300236667     -0.014228990818253     -1.782558285733126
O      -2.182256947777615     -0.960646896697111      0.248037591128332
H      -3.008432098137807     -0.533116588056114      0.614987800449226
H      -2.377156152761687     -1.911943289658376      0.009187276840355
O       0.222781310552446     -2.387741395397586     -0.019472837028791
H       1.038556776229826     -2.934128697362209      0.170188191784917
H      -0.551576186366489     -2.995241653683469     -0.196430185415423
O       1.208864344093757      2.065822038051535     -0.150732996167151
H       1.575111931038393      2.582679690714616      0.623037558933546
H       1.423225138570843      2.544030562766777     -1.002417243221672
O       2.323421533263120     -0.526709038242570     -0.275202130205645
H       2.737877483080539     -0.900191271957044     -1.105104104393312
H       3.033561485959856     -0.372781955440252      0.411826035711769
O      -1.588442355304135      1.790446690716276      0.151597017766383
H      -2.245924542617535      2.041277628815324     -0.558896482455779
H      -1.671421790955661      2.423679148855056      0.921097548772356
O      -2.175463873330557     -3.581421129148072     -0.452098720295014
H      -2.426028627554032     -3.844608615282216     -1.383736874882576
H      -2.507115660526761     -4.272482940444398      0.190116714755721
