21

U       0.000000000000000     -0.000000000000000     -0.000000000000000
O       0.050147377127768     -0.008685615115459      1.792733336934031
O       0.069713161323925      0.000268552377501     -1.800548534023389
O      -3.066873618308041     -0.017921394384834      2.482083170636682
H      -2.851945898185800      0.016220762401268      3.458116155864666
H      -4.058823211800584      0.007832924974885      2.358096401163897
O       0.651886631777235     -2.329234244469428     -0.369842685454070
H       0.942872164963693     -2.939456470818949      0.367012967944361
H       1.165966777987051     -2.541400534683210     -1.200930568033172
O       0.818927115644403      2.293324297642298     -0.305495188242808
H       0.888214882052168      2.882228108209330      0.499732423880529
H       0.471722552259155      2.824705402558330     -1.078206720771394
O       2.398755725185223      0.035593771254764      0.296555985944812
H       3.060261247256159      0.217064905271015     -0.431096865206417
H       2.884844787839453     -0.208693457846018      1.135627599614464
O      -1.702999690656191      1.611231170983327      0.888611374441551
H      -2.242450644343279      1.890835776889986      0.094373417074949
H      -2.276203630620695      1.076262699525600      1.509293239615130
O      -1.712154841521309     -1.622644509976097      0.848304613650940
H      -2.246746997503049     -1.865898552627335      0.038960003798854
H      -2.288393078108613     -1.113773365707094      1.487835420747135
21

U       0.000000000000000     -0.000000000000000     -0.000000000000000
O      -0.013871370103817     -0.009541776331706      1.798926204622236
O       0.014023688507550     -0.007889699064939     -1.799101397797083
O      -2.422752661019144     -0.106262750036740      0.715892844956390
H      -2.618293591580776      0.523467700735712      1.467692887417825
H      -3.092251209772169      0.028588432784427     -0.014577449928574
O       1.094095141504117     -2.137777441696827      0.690587625207481
H       1.626901478066732     -1.990012459431238      1.523824036878727
H       1.660220365050474     -2.604856651921132      0.011368041684724
O       1.083907067052058      2.131828640206070      0.732641243542674
H       1.653488801746571      1.960157592237235      1.536448246990437
H       1.601150526551812      2.668617078148875      0.066069884650282
O       2.401003051929241     -0.117261717167819     -0.693072857715542
H       2.606353734170375      0.509520210569136     -1.444721387525484
H       3.062959153154810      0.018126882290732      0.044140847519850
O      -1.090183440848894      2.127329213567930     -0.737066061189746
H      -1.675358487246103      1.933640442186088     -1.524501661676933
H      -1.600776245968802      2.665843427057579     -0.066769537829070
O      -1.131108661187207     -2.113437960049972     -0.704475691297222
H      -1.695510153257592     -1.906555186579557     -1.503631792312482
H      -1.686690360118024     -2.578848760217725     -0.015475137668737
