21

U       0.000000000000000     -0.000000000000000     -0.000000000000000
O       0.007902418969031      0.003451410294103      1.835080019361526
O       0.005120002799321      0.004194541683665     -1.836917041003412
O      -4.006800424431318     -0.013266716083389      1.060100882164411
H      -4.072305817446829     -0.093604278469081      2.054713831786428
H      -4.922264248053952      0.099280736433401      0.673760282990301
O       0.835715721541576     -2.243031546234534      0.005668031467927
H       0.891575475998821     -2.827929455651337      0.814849175212534
H       0.924494685240797     -2.803652576688250     -0.817631644116551
O       0.759643305955828      2.261126820431812      0.000994232646320
H       0.822370758765866      2.845192372565271      0.810273354751297
H       0.854064970551699      2.820933187341114     -0.822231970060295
O       2.379672132025065      0.021513970332105     -0.481800987375784
H       2.916478535967162      0.022614959006371     -1.325505718019564
H       2.996186571516357      0.023168438699486      0.305540875243725
O      -2.083144613436959      1.255454883447538     -0.069999578450906
H      -1.945036801203675      2.240973096071281      0.028387843443557
H      -2.834162458844462      0.963352154468622      0.522155968346169
O      -2.064165824096890     -1.276335146982727     -0.066268705647223
H      -1.952521197693203     -2.264485152423579      0.039064309796297
H      -2.828502695323225     -0.965160119095348      0.498496067779047
21

U       0.000000000000000     -0.000000000000000     -0.000000000000000
O      -0.029127998526912      0.012450017730552      1.840658362658403
O       0.024636870884745     -0.002034193183434     -1.836669861113786
O      -3.627416209784446      0.000884396514998      1.557447569427695
H      -3.175763311258413      0.220453957192097      2.422201214853431
H      -4.586100648614265     -0.225203052101280      1.730099277567921
O       0.867478926765598     -2.229381684700142     -0.028637718269336
H       0.937155914088893     -2.787616078806493      0.798114650142310
H       0.896538536803799     -2.821420248025447     -0.834023264824610
O       0.822872433590157      2.245135499006602     -0.026029038116791
H       0.895777453469269      2.804530519348572      0.799659807207543
H       0.855179429760695      2.835477749502778     -0.832535259591584
O       2.291252914448723      0.011815057682954      0.830350390000551
H       3.003384437310403      0.009664455961935      0.128307607074224
H       2.715770996498235      0.015185459936337      1.735763576563269
O      -2.101119619366334      1.266434227745956     -0.036861786079647
H      -2.015661739111975      2.261366113719052      0.016123994809658
H      -2.809371044983210      0.958408015325618      0.598354531857513
O      -2.036000731068055     -1.273443602072380      0.007369781565338
H      -2.047843798620134     -2.273061352069406     -0.017612124723836
H      -2.709133460802095     -0.948611162097971      0.671731290159169
21

U       0.000000000000000     -0.000000000000000     -0.000000000000000
O      -0.029235801581663     -0.001686888421980      1.837394405308536
O       0.012397037790479      0.000861976248034     -1.831258768259995
O      -3.441142198895551      0.011597283458690      1.581684147847522
H      -2.919138310054819     -0.062369524828668      2.431414017457232
H      -4.416760209151876      0.068386901493266      1.793685179323729
O       0.899236664882295     -2.221573097403001     -0.042180096123770
H       0.920430299166846     -2.780779215550213      0.786577617139003
H       0.886862207796177     -2.816757422984237     -0.845674023539674
O       0.909785484780841      2.217043840833653     -0.050325166504638
H       0.935318152898357      2.776563740895055      0.778098375105619
H       0.898208391981923      2.811876823626780     -0.854091110983351
O       2.306725244895383     -0.003670129850676      0.829271646994134
H       3.031689084413056     -0.002865920429117      0.140485189055971
H       2.714463907908867     -0.002874050974600      1.742369970802912
O      -1.979254296367301      1.414702760233311      0.084784808911382
H      -2.294400768737614      1.581447805714049     -0.849495015745114
H      -2.686834758424848      0.923253302075876      0.592532108058500
O      -1.974357375249436     -1.384231804700686      0.089653561507148
H      -2.283180522293650     -1.572947441874565     -0.842556002987748
H      -2.688158512103981     -0.887224283461779      0.583081834771983
21

U       0.000000000000000     -0.000000000000000     -0.000000000000000
O      -0.033369088594849     -0.001819238737296      1.841623417505164
O       0.015725873313042     -0.002424649266030     -1.839545996917008
O      -3.157235035450400      0.020587575680854      1.766127452114549
H      -2.487199083346438     -0.040717121948292      2.505920367014886
H      -4.076035432234773      0.094601841732399      2.153848639683312
O       0.920972527837554     -2.200074210925735     -0.022744786148737
H       0.928539664927387     -2.763737131579428      0.803225461690985
H       0.890473686419697     -2.790717471629955     -0.829101009698141
O       0.951989619568995      2.202572841697981     -0.027997777594171
H       0.954090570211218      2.762817939465235      0.800326444214028
H       0.915568868028719      2.796259099064976     -0.831869755380940
O       2.299342536485442     -0.004156982575432      0.818827268099605
H       2.988378155292963     -0.008952073256135      0.094115654338725
H       2.752922225429123     -0.005720342699194      1.710041620364467
O      -1.898583639805751      1.400608710069246     -0.069040462337602
H      -2.087368950703542      1.875412104353257     -0.928646094686301
H      -2.725064431032024      1.388947505298812      0.493803670648873
O      -1.952252397463116     -1.418222801023632     -0.073885914834240
H      -2.130838605955824     -1.900329439509395     -0.931603907687460
H      -2.785981515217868     -1.399803334515862      0.477980447124388
21

U       0.000000000000000     -0.000000000000000     -0.000000000000000
O      -0.012267453596965     -0.000623744179489      1.835355175532399
O       0.015857372067222     -0.001356055967416     -1.832230203248194
O      -2.796209132590513      0.004964676128718      2.015333121338976
H      -1.964325978550160      0.002343603809153      2.570277756418702
H      -3.596700871268517      0.009344483249113      2.614660906109426
O       0.899710021947643     -2.227684128731052     -0.013559817861117
H       0.888775588366599     -2.788720400178754      0.814159180520775
H       0.878111860109773     -2.820664963725974     -0.818486677106074
O       0.919511517279019      2.224201513773838     -0.014990899364855
H       0.907214971487947      2.785916227447124      0.812248712479590
H       0.896697021471752      2.816447403234617     -0.820425133301973
O       2.317975513666918     -0.002415252268773      0.765771695462599
H       2.967494421310148     -0.004290323153902      0.005428567182267
H       2.818317904528173     -0.005703918457776      1.631593083845873
O      -1.921249112600673      1.400259865413895     -0.073171955066865
H      -2.092648260347172      1.862501610631638     -0.943203506868194
H      -2.751895195041071      1.418576424494826      0.483327451392706
O      -1.961534770627934     -1.409943100024680     -0.075168908667691
H      -2.135834076166998     -1.871458067270394     -0.945010093653081
H      -2.793554038542632     -1.418881488890577      0.479505809543958
21

U       0.000000000000000     -0.000000000000000     -0.000000000000000
O       0.011377134165616     -0.000828922765139      1.836875111229832
O       0.018957709345684     -0.000957805005261     -1.832396699179122
O      -2.703010356712061     -0.016297054487136      1.940593582759589
H      -1.883692841643821     -0.021697875116761      2.513908191538167
H      -3.516650517204104     -0.014551645905961      2.521959769240509
O       0.897812314301714     -2.228788213203131     -0.013732626488715
H       0.868198270882032     -2.792811711813177      0.811494918766544
H       0.857208085080224     -2.817192635188605     -0.821279239853708
O       0.940837581254024      2.220876026184495     -0.010624175606371
H       0.898391205877570      2.786940686595173      0.812643159741962
H       0.890076035581984      2.805662680110004     -0.820221504450528
O       2.328394354440948     -0.003771668231658      0.738676928563387
H       2.975383314335659     -0.004692591594948     -0.023821883025535
H       2.831612423977533     -0.007760621465539      1.602827183289941
O      -1.901823749360246      1.411594120129070     -0.105547699186892
H      -2.081911141628003      1.875706362684193     -0.972824101181466
H      -2.730461868807961      1.417836634174535      0.454202153887272
O      -1.986881094517193     -1.457331760929587     -0.130794088145825
H      -2.163783328120983     -1.923668909098289     -0.997532378510265
H      -2.819119663433410     -1.457282087675740      0.423623590090408
21

U       0.000000000000000     -0.000000000000000     -0.000000000000000
O       0.077671474090960      0.019570038815965      1.831213586456341
O       0.054445208220983      0.006824474916688     -1.827194181294919
O      -2.517159958403806     -0.194274101830347      1.867835646608279
H      -1.887422841127208     -0.254461947514036      2.642308749017987
H      -3.360501927513142     -0.685829783552480      2.084970017230432
O       1.023543335544440     -2.201104129315901      0.017015980730524
H       0.978427723704203     -2.769915541169384      0.838245643683299
H       0.995427223493421     -2.784628556338928     -0.794592747235473
O       0.909680744035448      2.239684025867772      0.012064936740988
H       0.863090760654869      2.813788849572677      0.829520149488058
H       0.877137958299268      2.817563320839602     -0.803408231143395
O       2.416405511458445      0.054428386485430      0.099686217347986
H       3.006470188967584      0.050593039855231     -0.707660651396956
H       2.980825470546598      0.045173917413796      0.925122141320967
O      -1.952253870196240      1.349101047519623     -0.140100959728431
H      -2.127720533740288      1.821199399468796     -1.004007549627822
H      -2.784534534652002      1.348124355248101      0.414252665356932
O      -1.825561631503842     -1.596436574818932     -0.371381489337218
H      -1.959454818471967     -2.062254625712989     -1.246073525396070
H      -2.666610486252954     -1.649914240685013      0.166927867054366
21

U       0.000000000000000     -0.000000000000000     -0.000000000000000
O       0.040819208991367      0.022756759832937      1.838598571628310
O       0.137034079147358      0.082682269403461     -1.823229172987968
O      -2.427255473760527     -0.584372874461570      1.567055387361268
H      -1.877993369162460     -0.658743031657055      2.399389587169989
H      -3.257772637383733     -1.132569116735522      1.665656203199591
O       1.069957856370496     -2.172364248352082      0.015480537113923
H       1.520417146529646     -2.371608393211773      0.885761065822021
H       0.917698750595543     -3.025215083168331     -0.483981792057998
O       0.867238210923030      2.257998204314225      0.024911345039682
H       0.837001670414362      2.827941516468247      0.846038845826844
H       0.842137251283474      2.841390980712415     -0.786890853942056
O       2.420144662902358      0.081167411255781      0.208187727290468
H       3.023234058360895      0.068498402887097     -0.589385264549407
H       2.971132276285957      0.085136255050021      1.042691710610369
O      -1.998846107101621      1.287765221741850     -0.156140081834201
H      -2.166214447445184      1.783883470322166     -1.008111044999168
H      -2.827739283791623      1.296780705262337      0.403194185570943
O      -1.573634034151845     -1.564923978928090     -0.995352149876886
H      -1.406069841864686     -1.899594071835156     -1.922669878800866
H      -2.138862012983959     -2.224553238543260     -0.499966873748391
21

U       0.000000000000000     -0.000000000000000     -0.000000000000000
O       0.060092526401950      0.053386682688443      1.844980348034833
O       0.122990930238683      0.089787631739687     -1.830113428476289
O      -2.326052870785992     -0.576039935346441      1.518507068117709
H      -1.865708091207218     -0.598792138590146      2.405955670101017
H      -3.207528015050811     -1.043103767401527      1.588170163292526
O       0.029618370626268     -2.281606416836726      0.865195767579081
H       0.497733827502789     -2.365361129956059      1.744884955340068
H       0.142242898081366     -3.128623599244484      0.345698309912984
O       1.130118092641286      2.133922654522532      0.022051358441820
H       1.121935228034355      2.707753594212769      0.840984257635060
H       1.138796684405699      2.714781430217070     -0.791906726930904
O       2.264952657137083     -0.739738133590860      0.006774741405183
H       2.859968503718231     -0.732741083590329     -0.796908768198323
H       2.824350819593656     -0.741644574136340      0.835671635671687
O      -1.833489160175307      1.492811870930964     -0.107480589176658
H      -2.006474114799128      1.963102219436466     -0.972872519793282
H      -2.666437328837747      1.495868208788255      0.445861987461712
O      -1.682969748590413     -1.483511857170707     -1.087626332099642
H      -2.027135560411465     -1.348460139732985     -2.016771599316065
H      -2.328488191721465     -2.046565607989093     -0.571606552181266
21

U       0.000000000000000     -0.000000000000000     -0.000000000000000
O       0.745975651131438      0.019146066784241      1.723288217117682
O      -0.034083565261792      0.029516136108595     -1.846107161672173
O      -1.699026474054087     -1.046067832827512      1.678715047788241
H      -1.292333270401139     -0.969590814596802      2.589073166214743
H      -2.616618448781066     -0.648679961605987      1.689100023602907
O       0.862626532008849     -2.199124693096609      0.277398570234629
H       1.291886493460261     -2.345622629001661      1.168619216466690
H       0.864063676731321     -3.055977204351636     -0.238161036960313
O       0.830375685052767      2.243659491533662     -0.025230478323455
H       0.782067628534007      2.830159962506090      0.783276497048126
H       0.788987830899361      2.808261872964145     -0.849555169456509
O       2.312654689392109      0.005509584853572     -0.761711259021553
H       2.819544541027148      0.002627872497462     -1.623717276427061
H       2.956355090662939      0.018306156497537      0.003459337092760
O      -2.127424241608147      1.230302276798900     -0.056650925779842
H      -2.111813816201569      1.802915320471514     -0.876328067607409
H      -2.089207239487525      1.811115950912801      0.756488014814706
O      -1.607815896903904     -1.606234081728010     -0.875915535815970
H      -1.995605794708096     -1.489122318336652     -1.790193299975408
H      -2.202984755796006     -2.200540771730454     -0.335014816992811
21

U       0.000000000000000     -0.000000000000000     -0.000000000000000
O       0.769354729864494      0.028801184269516      1.713608286224863
O      -0.057862551302620      0.017250829962947     -1.847087912639989
O      -1.572702778620283     -1.084029693345977      1.629603688307702
H      -1.308682592149558     -0.885417794570292      2.573450420992983
H      -2.538815754641151     -0.860953988751648      1.499746275797498
O       0.892990323983702     -2.216222860760333      0.143431668687692
H       1.348792906425423     -2.399075514891484      1.014528054121963
H       0.869691830180202     -3.053534404066466     -0.402797733333831
O       0.830085813313061      2.245952101668463     -0.048891911192664
H       0.803015942670831      2.823607873186968      0.766939585952900
H       0.809866937877741      2.822027398692350     -0.866038439812209
O       2.284174009404078      0.043768503656972     -0.827037468523475
H       2.772899867173570      0.030659042092284     -1.699376380853401
H       2.943742259614917      0.043209506956779     -0.075392997489129
O      -2.144331046180244      1.222157678534588     -0.066989973876681
H      -2.123733251600195      1.799145580305801     -0.883482896116728
H      -2.138911565584384      1.799577170503257      0.749439667626319
O      -1.666302585759947     -1.665248847669321     -0.868038100694235
H      -1.986904322889295     -1.523835211678858     -1.804636579075234
H      -2.287109114330200     -2.289583543333743     -0.393901578293602
