21

U       0.000000000000000     -0.000000000000000     -0.000000000000000
O       0.006333316022935     -0.003956447582635      1.798827734576524
O       0.005940288146547      0.005020287007863     -1.798757391111341
O      -2.366598465615797     -0.074321114970098      0.711538431710137
H      -2.659078305024301      0.134673933276726      1.644692552607582
H      -3.169797242156446     -0.163334345767394      0.122515197782447
O       1.163820381125793     -2.052593967425513      0.743967346134525
H       1.333907419109698     -2.307925660849601      1.695742595782807
H       1.550186787864887     -2.748063245251855      0.138126209083542
O       1.039908794462602      2.141999421286956      0.718541100181823
H       1.488094633260510      2.256470459656588      1.605122080846079
H       1.377257247533680      2.835943115030275      0.082429340249318
O       2.363469301633477     -0.105674573306102     -0.697403594109948
H       2.664859906003043      0.227752480005821     -1.590706512339524
H       3.155804984032225     -0.212191071921043     -0.096688685088603
O      -1.170833482644816      2.053498391074270     -0.755526428865541
H      -1.449796841231937      2.212573793517652     -1.702560990485797
H      -1.647882306237626      2.695402252955088     -0.155206637411680
O      -1.177783857928875     -2.062128878724769     -0.730804807986410
H      -1.356133648216095     -2.312123013634995     -1.682484525546363
H      -1.632009107494047     -2.714465348549954     -0.124062232594282
21

U       0.000000000000000     -0.000000000000000     -0.000000000000000
O      -0.020272495291259     -0.000310080572704      1.789541065457948
O       0.020479078371134     -0.000394024040322     -1.793407094389414
O      -3.668546320015827     -0.032228644520746      1.768518889307200
H      -3.437876531508592     -0.210632175453875      2.725056201083704
H      -4.662729408137461     -0.025634345624945      1.661017714825224
O       0.715269327691444     -2.307110992361149     -0.246232280377682
H       0.824896144578045     -2.933001899578386      0.525935145302849
H       0.653549598149008     -2.832385721320031     -1.094923704926311
O       0.757263215811730      2.291541369597186     -0.275681860032467
H       0.876881296673007      2.921567668601528      0.491624061548983
H       0.664112746739581      2.813079485641950     -1.123809788840449
O       2.372974865869784     -0.002423433071999      0.533560382803831
H       3.108192742063019      0.013389476733235     -0.144086004635371
H       2.766603207224948     -0.055668194609152      1.451286771359175
O      -1.949756647332032      1.447643361413933      0.335219279420327
H      -2.286230598452033      1.801677569670984     -0.537388914216141
H      -2.717087094959424      1.091965996947327      0.868789890070909
O      -1.974326775427070     -1.408215837697359      0.270176815935516
H      -2.285219902547360     -1.772461457536333     -0.607701644865004
H      -2.759318295421777     -1.063230665948478      0.784738323250040
