21

U       0.000000000000000     -0.000000000000000     -0.000000000000000
O       0.186714497260217     -0.000365244045579      1.841830175909601
O      -0.185105269040533      0.000232542846042     -1.841102771632994
O      -3.946274074300403     -0.000363266285586      1.370859092120057
H      -4.040859671727928     -0.000592930820865      2.366375798164451
H      -4.853327616859349      0.000172211358991      0.949844146785619
O       0.732164708810137     -2.277539059224773     -0.045614775909059
H       0.758012094671829     -2.889463643367859      0.744878877427530
H       1.092520361405936     -2.753753182386383     -0.847714465812798
O       0.733177934682032      2.277516274734694     -0.045473039748885
H       0.759499674746682      2.888882352340825      0.745436996318722
H       1.092367807940787      2.754537975586782     -0.847615752652606
O       2.376282361809911      0.000709860386279     -0.272871097800958
H       2.861048191063564      0.000146529063654     -1.147514895838673
H       3.039315966901524      0.001474998544380      0.475718144095301
O      -1.926029274770485      1.401349702792253      0.223366095031725
H      -2.055850965514908      2.339700141620830     -0.097016149423980
H      -2.768436052869513      1.076302793558225      0.653128037286063
O      -1.926457133056540     -1.400531587568544      0.223423995926139
H      -2.056117859390998     -2.338660447939823     -0.097671530957849
H      -2.769017081712592     -1.075849702857327      0.653161598028962
21

U       0.000000000000000     -0.000000000000000     -0.000000000000000
O       0.046096704234436     -0.000599547626368      1.851043741864100
O      -0.047310528153909      0.000177896348625     -1.849763025812907
O      -3.842446254497484     -0.001689757288639      1.415360637420347
H      -3.856788657771898     -0.001245146330213      2.415257681015041
H      -4.780376624533965     -0.000544514584244      1.068538911771018
O       0.733745592846565     -2.277724155192937     -0.007552547542198
H       0.694620803659128     -2.898063723723458      0.775804376590350
H       1.147967108087435     -2.749451949337909     -0.785944110023882
O       0.732270288422265      2.278376105035870     -0.006107842391608
H       0.692767203148580      2.898015336031845      0.777784197155022
H       1.146020751687622      2.751091222501191     -0.784150882247020
O       2.390938229888253      0.001001419130582     -0.076412058822732
H       2.944563820823990      0.001124960666234     -0.909177746035254
H       2.991535165991644      0.001601810029151      0.723139665504086
O      -1.935942583906624      1.399768511257718      0.095498638038498
H      -2.092310639448125      2.302120349255530     -0.306135762465419
H      -2.760767015221024      1.101107526239809      0.575567668007115
O      -1.935410836114769     -1.403943568150172      0.095509645277314
H      -2.091290237394907     -2.306597431836583     -0.305635733143701
H      -2.760248505361132     -1.105661130606886      0.575791236477167
21

U       0.000000000000000     -0.000000000000000     -0.000000000000000
O      -0.072381495776489      0.000392478022620      1.850293226771453
O       0.070609944373321     -0.000349462809875     -1.849377555009662
O      -3.560597946565817      0.001345484098049      1.643990651651225
H      -3.382572185749724      0.001566863874280      2.628016453892633
H      -4.547687385777824      0.002642994772123      1.483825875679179
O       0.737394609345457     -2.276822823423073      0.022215901387569
H       0.532233854994874     -2.943384107858955      0.738878387475328
H       1.309081089268183     -2.705116932380253     -0.677597448660954
O       0.737843783271544      2.276249641318558      0.022163303189599
H       0.532918977478372      2.942707832185263      0.738989156376625
H       1.309568763529276      2.704551835282111     -0.677613645269911
O       2.391808991341091     -0.000103330652984      0.074811317632059
H       3.000203512352906     -0.001844101733455     -0.718821517197026
H       2.937256817176357      0.001909478031033      0.912953678984105
O      -1.932764627868795      1.403113615372182     -0.016298105713321
H      -2.146609676807524      2.236805665012277     -0.525442349922454
H      -2.711808871180283      1.155130980334037      0.559544476667289
O      -1.933656224900477     -1.404579644913488     -0.014059680009314
H      -2.147719738824404     -2.239340603221184     -0.521357378103598
H      -2.712539610064037     -1.155259233479947      0.561422730459297
21

U       0.000000000000000     -0.000000000000000     -0.000000000000000
O      -0.087804891143225      0.000647167465596      1.849449263042042
O       0.091258640436312     -0.001070563128661     -1.848857762996884
O      -3.296898522133688      0.000210338812825      1.795920658452780
H      -2.993906024270405     -0.000191940295948      2.748913514884604
H      -4.296385969115362      0.001128875972545      1.763920664459926
O       0.741113114656112     -2.275502036087265      0.060775146452648
H       0.479023149666497     -2.946964078960419      0.753918403818939
H       1.366148796903687     -2.699565611949648     -0.594587714521421
O       0.741897491876309      2.274933231248708      0.058602198730142
H       0.483913363600147      2.946037799907803      0.753629426601453
H       1.363634185046401      2.699126151990904     -0.599807894113310
O       2.393107202968979     -0.000730292414720      0.068872296055743
H       2.997096987139247      0.000898708353795     -0.728118097220392
H       2.943188569496243     -0.002199770385960      0.903982067782784
O      -1.923903409272085      1.409100090816212     -0.076888184670385
H      -2.169012992822368      2.202835672067673     -0.633579408875700
H      -2.671771514421383      1.200121181395899      0.553207929202645
O      -1.927580796836169     -1.415927154690066     -0.074761440303450
H      -2.171969604329833     -2.210705682256420     -0.630280299471420
H      -2.675633946446629     -1.206704169101898      0.555033945246052
21

U       0.000000000000000     -0.000000000000000     -0.000000000000000
O      -0.067248940264273      0.002554136656076      1.849529360891188
O       0.082708234909739     -0.003734762414146     -1.850579333088276
O      -3.074721657442494     -0.000140110309809      1.855480593704795
H      -2.710951777274394     -0.001520883121875      2.786968418503879
H      -4.074192849731657      0.001578889420739      1.887951824417637
O       0.745798139345710     -2.274745866525211      0.060943758212260
H       0.476597820268825     -2.950459132384089      0.747196459883614
H       1.373473506199743     -2.696220526894014     -0.593565786799620
O       0.752062455640293      2.273891124286002      0.052362816124573
H       0.485563133916890      2.952601689660231      0.736709278064986
H       1.380508243168246      2.691330412284563     -0.603991000786418
O       2.395434882632114     -0.002549453104030      0.065222151281726
H       3.001919150278835     -0.009334642112072     -0.729844383234188
H       2.942896260958115      0.003602276914726      0.902030489827161
O      -1.911862276310811      1.418488351680313     -0.146504049375691
H      -2.166570378406825      2.167465200889227     -0.758188168897961
H      -2.648326598689502      1.260100691198780      0.511168856308041
O      -1.920576937345134     -1.430814363909336     -0.148271562678739
H      -2.173779841683130     -2.180623650976357     -0.759560628721024
H      -2.657398037735753     -1.273497733565973      0.509258774139699
21

U       0.000000000000000     -0.000000000000000     -0.000000000000000
O      -0.075238348787089      0.011240775935913      1.849001413724219
O       0.115054913656238     -0.011395657514607     -1.850891152353910
O      -2.947201066971918      0.000177726109601      1.756937866767425
H      -2.586458056695456     -0.001508959143871      2.689601598039062
H      -3.946771497733796     -0.002112427924185      1.786156168241265
O       0.742104358225975     -2.276468901304683      0.124989667090441
H       0.401554445480829     -2.954089680364435      0.776799330041006
H       1.431354698777193     -2.697867089542379     -0.464380789413801
O       0.766030063376221      2.269138973972921      0.090743085561001
H       0.453564080127137      2.952710136506311      0.750360758963506
H       1.440608055706811      2.681012718141058     -0.521877964622676
O       2.396911565046351     -0.012694922507663      0.064278306803430
H       3.003611304675785     -0.002128505925519     -0.730582546915124
H       2.944141401935798     -0.027307760522857      0.901133115347356
O      -1.882118534554418      1.438553889338596     -0.288915061964383
H      -2.095920652574300      2.155714949214570     -0.952216402629230
H      -2.650108573573546      1.328326080647001      0.341989946859010
O      -1.901944274879537     -1.450280052296494     -0.300152148029171
H      -2.113731725024162     -2.161187516455557     -0.970791136877992
H      -2.670882575852521     -1.347600303560398      0.330871431955186
21

U       0.000000000000000     -0.000000000000000     -0.000000000000000
O       0.016535284092102     -0.018741325331644      1.851421155188430
O       0.061838357650900      0.017096208156827     -1.856221584854716
O      -2.762625584474950     -0.031004036943293      1.754587882267890
H      -2.417466601997394     -0.037053859772442      2.693112616336627
H      -3.762535588576339     -0.035781418634144      1.767124242271537
O       0.763090642792358     -2.272181907802511      0.090230108406181
H       0.764412285554067     -2.840615998706262      0.912957850468424
H       1.118591423605222     -2.800709250615342     -0.680664205193713
O       0.776853071859001      2.267238650419388      0.136125680149645
H       0.445329161934701      2.945338767906565      0.792076995273247
H       1.471341877616893      2.683145701253529     -0.450991534504656
O       2.400713434843880     -0.000213965272377     -0.028017114419822
H       2.972431047446994     -0.255385217791954     -0.807777720841425
H       2.983615963830629      0.241979903695511      0.747590242130655
O      -1.859623369311232      1.470163649616737     -0.337269075917710
H      -2.029402691946113      2.153108801231854     -1.047734347054200
H      -2.645490696406171      1.428573405539310      0.279725896348870
O      -1.878552661622855     -1.476145583678228     -0.393773990715531
H      -2.041868906107994     -2.145248949090782     -1.118776398077648
H      -2.661242968096307     -1.461139196535995      0.228456426812761
21

U       0.000000000000000     -0.000000000000000     -0.000000000000000
O       0.076281175069642     -0.026192571104163      1.851519699958518
O       0.045730694353811      0.028336229086640     -1.859848838641556
O      -2.642157324573945     -0.009213072563138      1.658901358976795
H      -2.437965607312887      0.104186186658074      2.631242014616607
H      -3.614073041466401     -0.214668406164982      1.544149691660020
O       0.752760043997175     -2.278330619472879      0.115946769594813
H       1.345354323245742     -2.647740819780727      0.831745710716122
H       0.520854602944248     -3.003748729104953     -0.532118375763179
O       0.824174761295022      2.251868911250524      0.163466054978362
H       0.566732831325638      2.902439037355377      0.877946400203865
H       1.460677999766741      2.689133102876687     -0.471879248094332
O       2.403225492275158     -0.035141198807974     -0.091921449776275
H       2.943238173205240     -0.407760175864710     -0.846601118491352
H       3.016742976286532      0.314364606454982      0.616204237443054
O      -1.809891157009406      1.529574510508030     -0.412152728893514
H      -1.928173469902100      2.217021193511960     -1.128690482597845
H      -2.622104490086588      1.512732167243999      0.170964615253470
O      -1.845509297339301     -1.502710853129347     -0.533904698568081
H      -2.108511770075662     -1.797493504108050     -1.452562898344542
H      -2.485783937203203     -1.882127372958776      0.133996109956414
21

U       0.000000000000000     -0.000000000000000     -0.000000000000000
O       0.093413670137779      0.006941273283579      1.853361253368657
O       0.067632171654629     -0.005955607855121     -1.862008044862788
O      -2.563131039101321      0.022351878273296      1.481330566083339
H      -2.505894856172365      0.228428380176096      2.458191095906931
H      -3.497698338147985     -0.249910644604125      1.252295454825162
O       0.793106656947316     -2.264383836157345      0.208349093263613
H       1.347537975433209     -2.608226692891205      0.966226393989194
H       0.616363236196315     -3.006081329051685     -0.438679957286271
O       0.836099034095488      2.252587838946892      0.180877575666781
H       0.599664916007052      2.891752562535992      0.912702256804971
H       1.449864626239177      2.701611523009659     -0.468483286297664
O       2.408932151461808     -0.021674142160912     -0.114461379238556
H       2.942537199941319     -0.398670281010728     -0.871521194266079
H       3.028394087047781      0.336166962311998      0.584263641287894
O      -1.753368972389472      1.577937722304293     -0.574369580639570
H      -1.803952214894379      2.180351365966840     -1.370949229831604
H      -2.579014066160819      1.687194178831725     -0.020859683855083
O      -1.769161651242813     -1.584928609408952     -0.600767179056577
H      -2.077492467377419     -1.752551576186179     -1.537161673289947
H      -2.307222647172285     -2.141733425839378      0.032050931508587
21

U       0.000000000000000     -0.000000000000000     -0.000000000000000
O       0.179355882744359      0.024024636263820      1.853157086295147
O      -0.005744230770124     -0.019181246078652     -1.866659915802381
O      -2.438015833209770      0.022949695506146      1.383948243454325
H      -2.452396829088046      0.206226467294169      2.366904403148392
H      -3.359876406767537     -0.210921846084424      1.074954416729911
O       0.847625035284589     -2.249454960513942      0.302942589451649
H       1.188039525468818     -2.627285666213339      1.163966359566799
H       0.915493400387582     -2.942218648592215     -0.415021446902845
O       0.910903692221860      2.231920026827493      0.205103737338975
H       0.746489435017730      2.844817738951059      0.977971349871492
H       1.497610763049215      2.688671843961858     -0.463590954269715
O       2.399986547009726     -0.037919593885022     -0.305501413358858
H       2.867241050333949     -0.162634594646211     -1.180783880742028
H       3.077754703865777      0.056719611787188      0.423658203118689
O      -1.673048681976597      1.692841569142653     -0.590623619554654
H      -1.709011829805377      2.206127020032046     -1.448087728368264
H      -2.444874985979332      1.956166898172831     -0.011880215669455
O      -1.693381089855506     -1.689644831979914     -0.586574442837567
H      -2.011470926502241     -1.867509448261773     -1.517801071589646
H      -2.156017437030659     -2.309041084996578      0.047709320174972
21

U       0.000000000000000     -0.000000000000000     -0.000000000000000
O       0.214498566508392      0.039657207621631      1.853458607049124
O      -0.109016791743368     -0.051954182507352     -1.863927520967756
O      -2.361381826792738      0.089341354103626      1.143845062920247
H      -2.491994184944942      0.231672903601427      2.125008730162097
H      -3.250592131817692     -0.036513884594755      0.703997939103799
O       1.070544252983706     -2.163855889001337      0.434638179311048
H       1.429035841127048     -2.460044003336579      1.319938344315549
H       1.213850282723191     -2.886415975238070     -0.241653402492150
O       1.055266036253176      2.189775477037061      0.362145924635587
H       1.210886793661118      2.609737672433475      1.256245434926026
H       1.388005819577956      2.801220382649823     -0.355781205366602
O       2.368272205965217      0.005599187280634     -0.613401521479373
H       2.713869607009810     -0.066184561016569     -1.549034745489523
H       3.137520223871769      0.077612148401955      0.021477695677230
O      -1.462304482989145      1.913967785127757     -0.627257819533335
H      -1.618324184095113      2.219430065965677     -1.566593035445152
H      -1.991770840798908      2.484083223420374      0.000941004859136
O      -1.485398022430703     -1.899626843028309     -0.461321368582154
H      -1.783789510947665     -2.178286227482642     -1.374180321014655
H      -1.881796854279496     -2.513952182021047      0.220933967769544
21

U       0.000000000000000     -0.000000000000000     -0.000000000000000
O       0.147731110818559      0.065792084709982      1.861022969673987
O      -0.126884528455749     -0.058873076377382     -1.863163614419108
O      -2.347746133007992      0.005876509114399      0.828584151979823
H      -2.607261367092778      0.073256491796694      1.791969734813432
H      -3.171486064194433     -0.056230443117397      0.265028252131870
O       1.208750867097034     -2.091658062927274      0.599557514573989
H       1.455897025423385     -2.362209368760355      1.529998682696156
H       1.508130668483369     -2.796764262538096     -0.043246484940842
O       1.200799663678097      2.121828473981657      0.428658651968579
H       1.606875224652988      2.376585052682750      1.306270026317978
H       1.356200643002884      2.853206192259274     -0.235372347934231
O       2.351789131288919     -0.044830216219917     -0.745315067824013
H       2.648992454794630      0.127379154458925     -1.684471134272799
H       3.149217387889580     -0.236684671441270     -0.173213640115125
O      -1.294027386287710      2.036689659723062     -0.608269399255210
H      -1.519983616913151      2.305854028251474     -1.544482155286788
H      -1.687749829877857      2.695936920494552      0.032336319247748
O      -1.266252510834848     -2.086609115184597     -0.491356750662669
H      -1.480848605215220     -2.408459327352489     -1.413506932142982
H      -1.643360971310536     -2.724199444291990      0.180407926338423
21

U       0.000000000000000     -0.000000000000000     -0.000000000000000
O       0.094990540567122      0.140159215244607      1.859903512964844
O      -0.034528384338167     -0.026569101379708     -1.865112100639590
O      -2.318350151290235     -0.326575627618742      0.764196795056643
H      -2.606848122104169     -0.315134469549810      1.721608942847909
H      -3.112708999010301     -0.488041215054543      0.178600615831691
O       0.955444735646873     -2.166439424939492      0.784854985534664
H       1.128613769345188     -2.390087007267053      1.744018290028236
H       1.181503967996800     -2.954809729894474      0.212692870627926
O       1.195462396113303      2.117277210713278      0.194795709938783
H       1.857668330862614      2.325827020929090      0.914511123586248
H       1.107837188141901      2.904359170114786     -0.415797290440889
O       2.378645451199746     -0.248370384868008     -0.505678246238680
H       2.822340909222480      0.113228502803481     -1.325666407717088
H       3.053220401801493     -0.730746970666556      0.053125355659148
O      -1.440849766298917      1.922458885352683     -0.487827260128314
H      -1.704317525045159      2.228336211437449     -1.402717308980342
H      -1.878454270633777      2.504847048216075      0.197246696129290
O      -1.200708482059219     -2.190318065106878     -0.832674698145557
H      -1.280915910036524     -2.435002458892680     -1.798954324307125
H      -1.638088663593141     -2.894316499616705     -0.273134904199615
21

U       0.000000000000000     -0.000000000000000     -0.000000000000000
O       0.166510448813969      0.207867163316437      1.847280946575561
O      -0.076922125215943     -0.062311694540447     -1.859041449920037
O      -2.235046917202863     -0.543984179636848      0.876738986021121
H      -2.457773318820788     -0.604135270001678      1.849762519318365
H      -3.055568842939006     -0.726542974153787      0.335060062736511
O       0.715058486934728     -2.214930837329137      0.774256942063269
H       1.174297127963431     -2.405105422555056      1.641974348665361
H       0.575923698578665     -3.070818293663188      0.276162400074359
O       1.170320296946195      2.119074512375689     -0.030256262432790
H       1.477269220386310      2.622985195408357      0.777119970759953
H       1.420725872510280      2.626297575771858     -0.854890612727165
O       2.358398465535705     -0.347508552275684     -0.418769942254872
H       2.734986712323908     -0.752271329806808     -1.252045638712099
H       3.104017987545193     -0.118705225609567      0.207089919139723
O      -1.562351607144380      1.817723572883454     -0.360849655228597
H      -1.840588780455867      2.173676859751874     -1.252971470316201
H      -2.027769635318508      2.328719232442617      0.361832498253973
O      -1.309731266885918     -2.261917565070222     -1.010137606372614
H      -1.294851678250510     -2.459110940576163     -1.990389293695116
H      -1.883546921937215     -2.934901868341687     -0.543417431569478
21

U       0.000000000000000     -0.000000000000000     -0.000000000000000
O       0.327332426019548      0.145857337189744      1.828433409415174
O      -0.245153769014548     -0.008345456338417     -1.839476331948952
O      -2.133477750106718     -0.686708082540354      0.992199687887507
H      -2.280875549767373     -0.812412780632446      1.973256372046365
H      -2.975078356630215     -0.904712237357423      0.498051321926655
O       0.565074637821191     -2.285632648553487      0.593256863867294
H       1.187294672248283     -2.596796631007627      1.311601631218479
H       0.157821131761543     -3.077862330637414      0.138815764683557
O       1.196974706533686      2.085362326349630     -0.181355087868121
H       1.248220547185098      2.779636845340983      0.536528437569855
H       1.711097392133005      2.394552045140565     -0.981404825038334
O       2.308751098128817     -0.438841505005546     -0.530419283000189
H       2.619229798258110     -0.996471916550005     -1.300257773130932
H       3.100579710721498     -0.115519365087856     -0.012278141882641
O      -1.569615163197311      1.825916251795380     -0.039543647194598
H      -1.707460579143870      2.440938448183600     -0.815911046852988
H      -2.186843251498953      2.083879405370602      0.703749362599674
O      -1.498115943786450     -2.279172945864569     -1.154492228286772
H      -1.469975124276515     -2.363706970716174     -2.150515367033908
H      -2.136635038150583     -2.951946459111082     -0.780768846617455
21

U       0.000000000000000     -0.000000000000000     -0.000000000000000
O       0.270675742539808      0.264132749418276      1.822046337777632
O      -0.208879975860160     -0.155428213721264     -1.835149210038720
O      -2.135234966465209     -0.757649238170352      0.898689191326578
H      -2.330099852515605     -0.894912398399770      1.869867084932276
H      -2.940216046076184     -1.004293601707458      0.359085615167446
O       0.491821251423370     -2.259483789612120      0.664416781173865
H       1.115072455439506     -2.624722377048131      1.355906991473464
H       0.004364648862059     -3.013194806507465      0.223615506640805
O       1.154327680893701      2.086420037704062     -0.315659293094819
H       1.206969488218769      2.821362864202524      0.360423454725300
H       1.646606911092344      2.358279255025375     -1.142553316215360
O       2.328922673165793     -0.443079865847617     -0.395110791518833
H       2.678397407181603     -1.103773781407381     -1.059453293716973
H       3.095444485304649     -0.009350306675987      0.078516679196442
O      -1.616167708067549      1.771324487264912     -0.154144538226066
H      -1.755322319650365      2.350222647400726     -0.957582721452756
H      -2.253311469760725      2.043265459393995      0.567032232484804
O      -1.460932928688994     -2.487086980024514     -1.183065276166783
H      -1.344550524951263     -2.579892980226135     -2.171924306780755
H      -2.182438698120348     -3.106089466643497     -0.872798703302762
21

U       0.000000000000000     -0.000000000000000     -0.000000000000000
O       0.238449764705548      0.161247024857851      1.835077875692200
O      -0.197893906266058     -0.095879783559201     -1.838597910442199
O      -2.161538148376568     -0.844562772053980      0.693650622863522
H      -2.735363724428607     -0.605871306498237      1.477072981836890
H      -2.606771054718821     -1.564650636329149      0.161446595413844
O       0.376127732292778     -2.323984117963110      0.433454971889143
H       0.964653324735433     -2.776281081424277      1.103578157492977
H      -0.120398308383649     -3.013774690694062     -0.093470883143325
O       1.189427035890060      2.074682983298943     -0.208334411028590
H       1.407895989903810      2.701878134267100      0.539260103888533
H       1.538683419964463      2.446678053670242     -1.068357460605011
O       2.325844422207563     -0.477907207746886     -0.350526748011659
H       2.681908638002024     -1.122277128499535     -1.027287916711446
H       3.086883688201955     -0.068926500893419      0.153014726979583
O      -1.597013280276693      1.789058432871769     -0.067138846376419
H      -2.288665735365975      1.904307874954948     -0.780114615577929
H      -1.683587072995976      2.525807592056053      0.603462119068344
O      -1.610578267241404     -2.461811942412313     -1.437421999826682
H      -1.572401393217759     -2.202270310809980     -2.402399029478156
H      -2.099839497855522     -3.328994073857628     -1.344585589297641
21

U       0.000000000000000     -0.000000000000000     -0.000000000000000
O       0.274838867976098      0.255306368223759      1.815819373857377
O      -0.254836813455131     -0.221366182619264     -1.819678451371253
O      -2.149200718527220     -0.883493364762290      0.645693473580040
H      -2.788389448267455     -0.654156578789623      1.379752331147192
H      -2.512849260362787     -1.648312996078736      0.113894009896743
O       0.345500965197812     -2.322518608167103      0.427192141064856
H       0.941165354112842     -2.816873635029568      1.060277477488230
H      -0.207643574121186     -2.976175491927122     -0.089299675844875
O       1.158474164806024      2.064093971353627     -0.385913673616230
H       1.565003415554853      2.646337382597232      0.318164857762911
H       1.311403485261446      2.472836888276519     -1.285659110287297
O       2.322399584600056     -0.486790471824672     -0.340388729544642
H       2.677643485516642     -1.127642314080517     -1.020911092982359
H       3.083267062524845     -0.090656747353490      0.173575037050787
O      -1.613148997826094      1.770981744817118     -0.077617263534995
H      -2.419853287740214      1.785246845041656     -0.668400384104414
H      -1.591435826767964      2.602776504261441      0.477041204680863
O      -1.680142525157903     -2.669907258841370     -1.351782514083014
H      -1.622036615054417     -2.425958315187586     -2.319828285780431
H      -2.168743464398629     -3.537063513371333     -1.255298565145142
21

U       0.000000000000000     -0.000000000000000     -0.000000000000000
O       0.315325921492645      0.294865851122007      1.801336415912137
O      -0.308304490596013     -0.280458120943501     -1.803450594585227
O      -2.141937009620995     -0.915433227415533      0.582087212443474
H      -2.833616441778239     -0.678506532145547      1.264322732039951
H      -2.453241961552655     -1.703983344738146      0.051730785713939
O       0.317986952411466     -2.333629809506313      0.377167630871373
H       0.946797929049800     -2.862760010192654      0.946920196798704
H      -0.278490459829274     -2.956965196476426     -0.128468297477681
O       1.141018936174538      2.039602762604123     -0.525726153062540
H       1.552506708093790      2.663750129746011      0.138440902467000
H       1.280105746125051      2.396715095496661     -1.449374160148486
O       2.319783507327109     -0.500752679739685     -0.328257967860493
H       2.709940424672513     -0.902105202624975     -1.156927825054022
H       3.047605417427755     -0.338305498119731      0.337989869180034
O      -1.609049229811885      1.774096115994055     -0.017640911486564
H      -2.232145573593106      1.979211383976121     -0.772411521146955
H      -1.758385421226382      2.427193156543820      0.724762589016331
O      -1.765658632405941     -2.855459446835678     -1.279351044878154
H      -1.725402746227114     -2.633168765005213     -2.253500066537214
H      -2.252422939365076     -3.720035235344088     -1.154574382814876
21

U       0.000000000000000     -0.000000000000000     -0.000000000000000
O       0.325679021231626      0.289266078211307      1.799293515542694
O      -0.324761022315932     -0.286012302581221     -1.800540344994423
O      -2.148171109877869     -0.928899091307011      0.504791317981421
H      -2.863730021329361     -0.689639045941012      1.161091611241919
H      -2.428223291730355     -1.736644874022686     -0.013974068243126
O       0.281887042954171     -2.350500402115683      0.296710190626605
H       0.917149741392211     -2.902447678630960      0.836891186146245
H      -0.353420895209510     -2.951908011139496     -0.187740747564739
O       1.151748398407318      2.035400744860222     -0.514955010305675
H       1.579825595253184      2.648252296068876      0.149245930465815
H       1.281097727571868      2.400381473118350     -1.436940812281416
O       2.313708776703145     -0.516190615017064     -0.336877869496389
H       2.666155861659178     -1.150680782956885     -1.024775593793898
H       3.076553682623767     -0.126350831747970      0.178963765980685
O      -1.600671433121493      1.780177528337900     -0.000119381407112
H      -2.415425806581750      1.823416080130852     -0.578311164958411
H      -1.555312813677993      2.597952195427468      0.573628986354163
O      -1.878518004974213     -3.021434447915306     -1.202649174327535
H      -1.881635997088429     -2.883924016170702     -2.193144585365157
H      -2.351727718688738     -3.874580074498934     -0.983069788483952
21

U       0.000000000000000     -0.000000000000000     -0.000000000000000
O       0.262429453046775      0.181397343277120      1.823260213777333
O      -0.264165374209211     -0.183191837321271     -1.824017922485587
O      -2.162172139419500     -0.962360398099168      0.356810906642859
H      -2.933185905414093     -0.679200380865548      0.927212674949279
H      -2.395334070074642     -1.808299814052130     -0.122795201148034
O       0.263101079409205     -2.368557766585094      0.149157512176353
H       0.952287853532814     -2.935346960995643      0.600568189356827
H      -0.413686603041701     -2.956373384691839     -0.294048119548378
O       1.167240331713377      2.061346713074249     -0.340720990995102
H       1.573019362641358      2.627866664059614      0.376494822546880
H       1.327802749054875      2.485980044918539     -1.231735156777146
O       2.320909377940587     -0.505846490443244     -0.293883272760879
H       2.700764935894177     -1.049699994537896     -1.042170063487358
H       3.061138705599545     -0.199188820862093      0.304465802746575
O      -1.605957562399939      1.774263469285455      0.042656608038226
H      -2.362655086991488      1.883753532976720     -0.601874835903732
H      -1.616172258620777      2.527918067226524      0.699847909702668
O      -1.958682181662386     -3.197644286555862     -1.159485360064593
H      -2.000338717235384     -3.123066057295541     -2.155830089947002
H      -2.414763911281888     -4.038776651335138     -0.868820947333853
21

U       0.000000000000000     -0.000000000000000     -0.000000000000000
O       0.219046735840309      0.064126914144109      1.836484683386390
O      -0.219862319649152     -0.063088557840449     -1.836937498811915
O      -2.179132255564355     -0.964444326654752      0.247358940756695
H      -2.986701379151704     -0.605999547781458      0.715706515883155
H      -2.384114000112548     -1.869583183050349     -0.125073784772159
O       0.239016898012324     -2.376955690885411      0.017738877489672
H       1.004664765763292     -2.937764856486787      0.332820489752089
H      -0.499359070104366     -2.970513880052665     -0.302401100926382
O       1.192271016399836      2.064377233126863     -0.205627677017243
H       1.559871299006667      2.602277616195577      0.553011374259389
H       1.402188515302194      2.520741663321960     -1.070304582287231
O       2.323732451757813     -0.511630228871586     -0.251797874253222
H       2.740467553833638     -0.921579947534800     -1.063138174537759
H       3.032993026828020     -0.320361017519835      0.426704539478637
O      -1.588357299351523      1.784006163983518      0.141255468711398
H      -2.256941313564849      2.018087961022778     -0.564578171910290
H      -1.663008207991554      2.432094729655403      0.899152858128050
O      -2.091333447889316     -3.430634471245206     -0.855628640732896
H      -2.246798856585928     -3.537766264478086     -1.837643551809863
H      -2.490307110941785     -4.207372279036667     -0.368290571075076
21

U       0.000000000000000     -0.000000000000000     -0.000000000000000
O       0.217983462197429      0.024815320901837      1.837578207821625
O      -0.215548747738865     -0.020239635755369     -1.838276107611777
O      -2.177851871287166     -0.958918794191109      0.248094233454778
H      -3.003823411987700     -0.531190203225823      0.615271665255315
H      -2.372968631508339     -1.910251514340863      0.009566445863346
O       0.221086115161819     -2.382045498809996     -0.020747790510833
H       1.037313391430721     -2.927127435784998      0.170716867998848
H      -0.552281185955071     -2.990778374705868     -0.197799487386965
O       1.205619912865847      2.060920757572149     -0.148830874346724
H       1.571943586938048      2.578728035265121      0.624268465313088
H       1.419241401962824      2.538469545419292     -1.001070872599396
O       2.318014122872304     -0.524969520542404     -0.272193850155583
H       2.731257736748755     -0.898540965586848     -1.102660039134844
H       3.029299183183149     -0.369994163631831      0.413412597982879
O      -1.582502497391574      1.788310418231148      0.154153978063693
H      -2.239933113221125      2.036006156634556     -0.557486244623845
H      -1.666718839430056      2.423893298326251      0.921579551173994
O      -2.174471718927125     -3.579448874475095     -0.454070922965644
H      -2.424848905248415     -3.843065954155404     -1.385638043398015
H      -2.506157746254641     -4.270269446415259      0.188386325931085
