21

U       0.000000000000000     -0.000000000000000     -0.000000000000000
O      -0.006920223333504     -0.048875359042830      1.797264872599167
O      -0.028607311798421     -0.202983729564441     -1.780380349955779
O      -2.681815233724246      0.415599989047705      1.695642682391888
H      -2.161014744783039      0.592486426809551      2.530794188919012
H      -3.658614613452566      0.517315292683815      1.884102144262565
O       0.805751434967408     -2.340077638193151     -0.067406440111028
H       0.815390599162242     -2.804243034858755      0.818289653959555
H       1.693925316372597     -2.453281932512857     -0.512751187623806
O       0.612916557295442      2.340712845180383      0.644078860367720
H       1.402596865506408      2.323563674229236      1.257357685014000
H       0.831152314239443      2.886085706462492     -0.165205759879103
O       2.444591466809097     -0.089394063317369     -0.398452513010523
H       2.795528162097025      0.419518098714106     -1.184488038439774
H       3.032315441457457      0.074159021794119      0.393905308919726
O      -1.755738666071955      1.617229469001789     -0.440455325270107
H      -2.262079088578676      1.551695649063000     -1.300295249314080
H      -2.387353212466441      1.509787111608816      0.327346214595976
O      -1.766764199854327     -1.617168738207156      0.332113796630042
H      -2.266204445831068     -1.963133895913319     -0.462157914028245
H      -2.398402759611326     -1.134296487360203      0.938634298501250
21

U       0.000000000000000     -0.000000000000000     -0.000000000000000
O       0.038071762615577     -0.178777114526884      1.809723700105446
O      -0.190111437427566     -0.555365419511605     -1.701452059361407
O      -2.625075733594780      0.360331862251833      1.609240344370214
H      -2.334611179112242      0.609531032557697      2.533107280735041
H      -3.620092292364628      0.433525173957982      1.541529289916038
O       0.962233267639596     -2.314934866165041     -0.011086521744613
H       1.297686017774812     -2.663128870745819      0.864260488075333
H       1.704386846273832     -2.327265946207270     -0.681202937142259
O       0.335130430352931      2.278432519022640      0.984800500056052
H       1.132370706094132      2.152512592047969      1.575183523801475
H       0.573313735188091      2.887788942646905      0.228524451059625
O       2.435591849730383     -0.115659807725043     -0.582573335154422
H       2.536205491767830      0.436112592231497     -1.410476779815791
H       3.019776493111860      0.256174309531556      0.138861132889115
O      -1.757275848292970      1.618027920754228     -0.607679789207829
H      -2.236844280252268      1.561952618484177     -1.483390745827320
H      -2.424404617931183      1.692343901227928      0.133546451401094
O      -1.610409906496917     -1.761105179641560      0.465164618305845
H      -2.092832486847649     -2.167452284611620     -0.310818940959552
H      -2.261756025169466     -1.266713800869442      1.040773338085185
21

U       0.000000000000000     -0.000000000000000     -0.000000000000000
O       0.150440920239018     -0.166601110766246      1.778883576225949
O      -0.125222851978818     -0.355005395477828     -1.750855830288414
O      -2.609045510552627      0.086776128544619      1.577318785857671
H      -2.529510233470924      0.231769501627358      2.563549520250808
H      -3.474767023836026      0.468090798890808      1.253088337538762
O       1.081037838920974     -2.252362944121415      0.002510771018440
H       1.434152921103307     -2.516795280586097      0.899943374709210
H       1.816962765523312     -2.300963613405252     -0.672805804633681
O       0.555233381917489      2.294006352077683      0.838108311584937
H       1.289254805814487      2.250838220785940      1.515861261929679
H       0.835171421195740      2.883865468503665      0.080677841552070
O       2.418162247985202      0.056954333148040     -0.626148113136424
H       2.566502130381416      0.649619475424428     -1.417819325459562
H       3.050945746667916      0.312517493191448      0.104791361118107
O      -1.596540032811456      1.758455294888237     -0.687273974175661
H      -2.179256264391491      1.578935970232168     -1.479873876729398
H      -2.091645354938896      2.328870257889199     -0.031913394047671
O      -1.553754449398975     -1.891772685951751      0.317790182727105
H      -1.955459961220726     -2.222392353518427     -0.536214101331309
H      -2.252501715039453     -1.417159741532463      0.853042283843587
21

U       0.000000000000000     -0.000000000000000     -0.000000000000000
O       0.023782292211002     -0.143740105288747      1.787289510753169
O       0.030902321333993     -0.128316105249360     -1.788497121284527
O      -2.702065181392995     -0.275460996880948      1.273961600417857
H      -2.601111768315351     -0.079603172874132      2.249383622500243
H      -3.489739448526906      0.224130021361584      0.913436894764489
O       1.049744068899949     -2.221599281567673      0.407419201648868
H       1.682694943823441     -2.195049994266710      1.181155801065876
H       1.529948877330430     -2.552668299407354     -0.404859474291178
O       0.787230307760775      2.256910184796144      0.736928084952554
H       1.461742052091636      2.265055970644784      1.475147261710140
H       1.101794516403016      2.844591521469118     -0.008511386210295
O       2.441419501344507      0.004802883227894     -0.477157902522155
H       2.707702336977447      0.558875968939295     -1.265888824407133
H       3.060029916644143      0.192105239034909      0.285887955596447
O      -1.456308331323777      1.886886711534919     -0.598198118387503
H      -2.082463150776210      1.798018408584701     -1.372815809127419
H      -1.878593116138036      2.454785353882000      0.108319179726788
O      -1.506594374392415     -1.951568587400155     -0.263511992611476
H      -1.868561033221769     -2.019031493290236     -1.193258675436846
H      -2.236656755421532     -1.669048135239344      0.358734834553553
