21

U       0.000000000000000     -0.000000000000000     -0.000000000000000
O       0.011784620971328      0.003107680130158      1.799953388208066
O       0.014119753824599     -0.000110230622659     -1.801699532725007
O      -3.815041602994000     -0.000181792677984      1.517155744887434
H      -3.718392921275686      0.000757553827587      2.512473859838757
H      -4.785653020733093     -0.000933819859410      1.276504731572244
O       0.624151070992017     -2.331938628482590     -0.272913253977792
H       0.834945077173917     -2.948046420278099      0.486018281700262
H       0.832773900793404     -2.786322446991214     -1.138945505319036
O       0.619625098809900      2.332612895001620     -0.265821397163840
H       0.817538328892124      2.958516509998347      0.488549213406620
H       0.846916836390048      2.774248072245034     -1.133748143064078
O       2.404929814909195     -0.016959811750755      0.299800351045060
H       3.042841053365592     -0.152819388979914     -0.458230932693375
H       2.918355880512706      0.131576082394066      1.144981256715259
O      -1.964908675991899      1.405462018344026      0.291887521367771
H      -2.187768430001985      2.083481316074725     -0.408557595645214
H      -2.806694020844206      1.088724610044879      0.729008611428434
O      -1.963405412570861     -1.406132806245084      0.295726247194434
H      -2.186812011934812     -2.085420580539901     -0.403314245949010
H      -2.804853344728891     -1.088564257348071      0.732893942957077
21

U       0.000000000000000     -0.000000000000000     -0.000000000000000
O       0.018762195219805      0.000450734075331      1.798208944704077
O       0.012447877824886     -0.000205653569524     -1.799105786772600
O      -3.852142332753772      0.008132991308168      1.458786121114459
H      -3.772002815595514      0.008564508774664      2.455569684172317
H      -4.818482358390497      0.024854459448479      1.202061857836432
O       0.598682268609171     -2.360455123989978     -0.107869715352520
H       0.791755819619659     -2.924772623575193      0.694793578664399
H       0.838405275461227     -2.866346414551695     -0.936487167570134
O       0.608982593098434      2.357756249288731     -0.104680622045084
H       0.799021652065831      2.925279072246930      0.696445461345254
H       0.851647041404525      2.860412317734476     -0.934410001049448
O       2.408737967482879     -0.006272169683564     -0.088940541836103
H       2.959747843873273     -0.032287930579350     -0.923033639940419
H       3.011791560641436      0.029152812137501      0.707973151383891
O      -1.980261107064672      1.368602200799497      0.220090320963830
H      -2.171640503549566      2.160133445208682     -0.360299389252612
H      -2.821419900001361      1.078962640660081      0.676774906063370
O      -1.982337723691851     -1.365192039912302      0.223035758099037
H      -2.164944408105866     -2.170960010783525     -0.340340471365245
H      -2.827350248126244     -1.073259575268782      0.671063959930320
21

U       0.000000000000000     -0.000000000000000     -0.000000000000000
O       0.012673818231637      0.002204994773913      1.794471125721904
O      -0.001089881104199     -0.001731559255449     -1.797798870475987
O      -3.673196780693897      0.012606583788999      1.526374398341039
H      -3.512994199677058      0.024602589556310      2.513385659108196
H      -4.657107279677692      0.025722135570749      1.348194398647128
O       0.674547590959050     -2.338491573887684      0.201071622497166
H       0.486677703107614     -2.916806927443839      0.994958426191438
H       1.230958589766631     -2.846002970183754     -0.456833372950934
O       0.684415370189901      2.338583986030889      0.201630670350099
H       0.485198829613622      2.925185934594048      0.986621704631845
H       1.256371133933030      2.836711053077668     -0.450087082512587
O       2.410083750308841      0.037048684534181     -0.295896149822284
H       2.926571311094234     -0.112573500178607     -1.139017612836794
H       3.044895727526050      0.144722752147097      0.469231322397389
O      -1.917082210819091      1.474664289341022      0.288460001313478
H      -2.141371813971884      2.088809294237731     -0.468190569873766
H      -2.761078542906956      1.130861161938452      0.700126858141233
O      -1.917859679286799     -1.481260351459396      0.332424289483928
H      -2.130030901325873     -2.094467206962343     -0.428470397646055
H      -2.767676679081325     -1.120805421194931      0.716980280346466
21

U       0.000000000000000     -0.000000000000000     -0.000000000000000
O       0.010725563295047     -0.000010916767097      1.796562485190454
O       0.002387183650880      0.002816847045216     -1.797956408121182
O      -3.321246162611307      0.022777981532464      1.877375504611933
H      -3.060066558542840      0.070806607273449      2.841470139763520
H      -4.318348747486271      0.028026698026141      1.801488178853050
O       0.749671425075847     -2.308969322702334      0.234253827979244
H       0.503150874581146     -2.907010903060756      0.996863745529620
H       1.298700553793427     -2.820644744555088     -0.426620803468675
O       0.754995617799003      2.304999502974379      0.229940647929790
H       0.531647306651710      2.887156965995483      1.011738716587218
H       1.315402863595093      2.819265802333071     -0.419269558554333
O       2.403862944455016     -0.017051811419606     -0.375993728615523
H       2.891924560098583      0.059600440936594     -1.245430495461803
H       3.063000874242336     -0.130778068099732      0.367379345995881
O      -1.886659189003514      1.472213024638809      0.267895150940699
H      -2.292965581824089      2.006231593712335     -0.473548901593135
H      -2.606739485103658      1.161740143076382      0.888452124137078
O      -1.895508638997103     -1.519697553556854      0.344987482574055
H      -2.313788048258951     -2.039792897422793     -0.399689070753985
H      -2.610665636482192     -1.170911042054723      0.950708902322677
21

U       0.000000000000000     -0.000000000000000     -0.000000000000000
O       0.005553567129370      0.000041217111550      1.796982715666387
O       0.001080506464650     -0.001274717887612     -1.797500560406270
O      -3.039550923928993      0.025812645246627      2.033382779569076
H      -2.679819229022041      0.059906940899754      2.965815450963258
H      -4.039051554398410      0.041282747901503      2.060935739756416
O       0.771152846715829     -2.299267699119982      0.223065777079888
H       0.509222881378524     -2.900818418501874      0.977737510530616
H       1.320112707920792     -2.812159568429234     -0.436922860081608
O       0.795236464868385      2.291592856106218      0.231427054681788
H       0.542507344233053      2.891894256440740      0.990219661616848
H       1.347398267912794      2.802037839056473     -0.427787070348661
O       2.403433783133002      0.025046447071801     -0.391309095647316
H       2.891005245469074     -0.130803001372485     -1.250369639808830
H       3.064045623624409      0.164644424850053      0.346325231646892
O      -1.871184191483399      1.487503308354318      0.241218365737195
H      -2.368286140052651      1.996717724253921     -0.461341476104537
H      -2.506844166290084      1.201829542022615      0.958384243103531
O      -1.882127343641530     -1.558180651298558      0.328890224190857
H      -2.375248484917957     -2.049884863146457     -0.388785543880820
H      -2.533071784101672     -1.217863038635721      1.007458760114459
21

U       0.000000000000000     -0.000000000000000     -0.000000000000000
O       0.005816782288817     -0.004325773708769      1.799220786158114
O      -0.002275733960517      0.007142918649803     -1.797359188860738
O      -2.792881690361945      0.012057824793367      2.110935891279224
H      -2.145900425886725     -0.029797741244707      2.872292151521220
H      -3.723841047981820      0.086767778250951      2.468333565186533
O       0.787203788187377     -2.293420380741319      0.231384578903325
H       0.499897603124284     -2.906766302665906      0.967089639428921
H       1.333940841803784     -2.802991768072944     -0.433006567497478
O       0.812023017349020      2.277613448956404      0.230542970106472
H       0.585270656166079      2.856501437684011      1.013787544428482
H       1.371103905998596      2.796139688827175     -0.416418464997878
O       2.396540883889277     -0.052303329732336     -0.425392657456740
H       2.875812957461730      0.100273769616931     -1.289694982021314
H       3.063910931324215     -0.208467621055653      0.302776233599569
O      -1.868121204866555      1.480442265407289      0.218099414061542
H      -2.402559007294931      1.987117245916670     -0.458403874519782
H      -2.460053105463682      1.213681209555258      0.978661813957950
O      -1.893427467089385     -1.575933793844549      0.289461184948412
H      -2.422054491684932     -2.041039563732062     -0.420630423004114
H      -2.512655821902745     -1.236354602348539      0.997445801517201
21

U       0.000000000000000     -0.000000000000000     -0.000000000000000
O       0.011551239078127     -0.010825210142337      1.799620925864352
O      -0.004684135804599     -0.004611675029064     -1.797236366565481
O      -2.751262721024877     -0.162112889178655      1.928756235393636
H      -2.127252354587896     -0.231584569241366      2.707077986502039
H      -3.695909523636253     -0.177177278070813      2.256499248291562
O       0.836479780969164     -2.256215978611610      0.252671693277185
H       1.005815754453967     -2.736046504473184      1.113536371688002
H       1.015341360306806     -2.873269231321963     -0.513653184797655
O       0.780411708438782      2.296212018410666      0.232831423959691
H       0.460677196013027      2.920501940087623      0.945595013978460
H       1.351856954027737      2.797106987487193     -0.417210544875864
O       2.393039055975408      0.153760015782092     -0.412089449971985
H       2.895578800794223     -0.067840758355262     -1.247760977415134
H       3.040134702638503      0.317063692474499      0.332624678568903
O      -1.863894856560940      1.503642041437078      0.201194543984339
H      -2.400213962258834      1.981236393030085     -0.494697295448965
H      -2.475270114497615      1.152366606260029      0.910296696444786
O      -1.921629529238560     -1.617074537802139     -0.072653052188057
H      -2.441947046866489     -1.973299149174870     -0.848780430330238
H      -2.546379080974811     -1.407766750521710      0.679595741622291
21

U       0.000000000000000     -0.000000000000000     -0.000000000000000
O       0.022263411470404      0.003573357640121      1.798367901186356
O       0.002205384031269      0.004329701430246     -1.798493807938671
O      -2.636098938709599     -0.052432598981417      1.943817201006588
H      -2.129284965470289      0.087495815885017      2.794440287480469
H      -3.585310421736792     -0.284982020942515      2.155756642439458
O       0.660003174631448     -2.321133181757244      0.322275050870161
H       1.259352474369045     -2.639220301159281      1.056850439359708
H       0.439291690396870     -3.086176107251177     -0.282700785737099
O       0.832557148623157      2.264761774349967      0.222734268801212
H       0.573205084107911      2.866909538009448      0.977820076740658
H       1.371825912327920      2.779373329672147     -0.443872172527721
O       2.394652559308668     -0.014756843643113     -0.365624816614906
H       2.856551078428505     -0.237064746102905     -1.224245195210027
H       3.076863491161351      0.176371224989019      0.340107643912202
O      -1.876543095819138      1.431185301641462      0.097149064691361
H      -2.431927307061925      1.943813053002419     -0.557649504669351
H      -2.454439893785213      1.116882195668800      0.850308309789299
O      -1.871778529938400     -1.718837555082556     -0.525429313308488
H      -2.303402548376211     -1.753790889870464     -1.426805467361168
H      -2.513615737232975     -2.053184362800321      0.164684598666369
21

U       0.000000000000000     -0.000000000000000     -0.000000000000000
O       0.018322066689259     -0.003191695723977      1.798608751485032
O       0.013767723231701      0.014529641348938     -1.797463679573608
O      -2.643197088883770      0.075193593305436      1.405136423233526
H      -2.610049877943059      0.103983648667317      2.404172155887325
H      -3.529210178362828     -0.283400206238930      1.111212466741184
O       0.716696704289004     -2.269501708731912      0.496653655253061
H       1.007257384679371     -2.576119534966006      1.403053125490421
H       0.933909098732964     -2.973959269131112     -0.179037340170386
O       1.090438659296918      2.152222871994688      0.406857756384724
H       0.838453799185817      2.747563996199681      1.169794566418900
H       1.622330633892788      2.673085567337808     -0.260819545880679
O       2.391622042456358     -0.069032522313241     -0.497156160804000
H       2.801297610123988     -0.287449586218711     -1.382853578351956
H       3.114912823135211      0.075973522340698      0.177991003597063
O      -1.632092267192309      1.780003052756873     -0.225570397858048
H      -1.924470929938149      2.357861068610433     -0.987538134107255
H      -2.409667384503276      1.606771368186479      0.378886151779510
O      -1.759739231770452     -1.594048650890409     -0.729802369114433
H      -1.977937954240560     -1.796813493044191     -1.684410003851745
H      -2.277247179472634     -2.206506391516839     -0.132239786607926
21

U       0.000000000000000     -0.000000000000000     -0.000000000000000
O       0.026484681576769     -0.004195678567003      1.799903151511298
O       0.006406134877521      0.017250612276322     -1.798600821207494
O      -2.525762191989128      0.025443423437224      1.216189343529001
H      -2.505953188243986      0.026473097010100      2.215992595745635
H      -3.399727415462581     -0.344038163458078      0.900486722215321
O       0.850295414707518     -2.221716775926239      0.537773187036467
H       1.142949418884763     -2.504002642299631      1.451375027820979
H       1.082808684868807     -2.936047787038457     -0.122278921332486
O       1.150086105633921      2.111751431087449      0.484100462780904
H       0.950368850071925      2.663661604825974      1.293735058110610
H       1.689747315988998      2.651217851712442     -0.162228988084636
O       2.372187526761459     -0.026861074395139     -0.626319333947162
H       2.722927611819876     -0.268463591252723     -1.531089811240323
H       3.134588740541222      0.056459356364917      0.015398746712175
O      -1.564589826186520      1.849869303673511     -0.326957766537872
H      -1.745018379415070      2.427045711140346     -1.123395417483338
H      -2.401006018776568      1.756014144892229      0.213041457483152
O      -1.608228053451123     -1.714649280464571     -0.734612768612517
H      -1.829357646401605     -1.921566058725751     -1.687653769826824
H      -2.107329033193383     -2.338830564458976     -0.133533791496023
21

U       0.000000000000000     -0.000000000000000     -0.000000000000000
O       0.007918413130361      0.006368810925303      1.799034640332793
O       0.005217086862410     -0.004238814226653     -1.798070529360397
O      -2.441620183464400      0.042979901273501      0.832583339363368
H      -2.633758252331834     -0.024837438577900      1.811605183301169
H      -3.283560373540915     -0.113048047003151      0.316064224818221
O       1.101050606325800     -2.111740090805211      0.690032980149192
H       1.393527341819448     -2.365847374792147      1.611926058233501
H       1.352422796508923     -2.836795510509544      0.048856982189262
O       1.104620733408424      2.103582279176295      0.677543506893309
H       1.306645065421778      2.393461656441233      1.613041297329529
H       1.319474673045907      2.847204092345762      0.044404988399284
O       2.380173962743406      0.082451182917282     -0.697252063898250
H       2.751940339152692     -0.147475153551156     -1.596653887984521
H       3.130974216503141      0.214613471016228     -0.050079669123282
O      -1.246369729643906      2.030403881458530     -0.720630980551322
H      -1.550485355598372      2.215935097680382     -1.655024823562696
H      -1.811896987061244      2.546517638482274     -0.077353815614730
O      -1.194434882232934     -1.977236872502107     -0.686310571726203
H      -1.493528474717952     -2.192863425435690     -1.615852508706126
H      -1.708412169390906     -2.533477957308243     -0.033299695967288
21

U       0.000000000000000     -0.000000000000000     -0.000000000000000
O       0.013706759230350     -0.001646614437204      1.800278325338937
O      -0.001603069726863      0.006853533341743     -1.799875948253044
O      -2.362840626328660     -0.011808652789842      0.745106498879359
H      -2.646566785337803     -0.085688883169425      1.701161506843325
H      -3.157194651435399     -0.138200429944922      0.150945913293018
O       1.184739640849065     -2.053281316190018      0.724327429315097
H       1.346959899373090     -2.339052234858634      1.668795305829537
H       1.402981664118666     -2.807940242592791      0.105570349291114
O       1.099121495310203      2.106831128344972      0.687944927919187
H       1.389578346761404      2.356720550198583      1.611627824962715
H       1.340093190221038      2.840648500888770      0.052771954623946
O       2.379575178358740     -0.062036498892550     -0.706217947501929
H       2.724220507805466      0.192344775899398     -1.609827245775127
H       3.148179326561854     -0.180866990224119     -0.077626683090098
O      -1.195741725749696      2.051596106247798     -0.728727475174885
H      -1.496179344889412      2.244173112884121     -1.662885563252408
H      -1.733462432697455      2.597714508710521     -0.086379336070266
O      -1.141622659993242     -2.072212824568790     -0.735712572816070
H      -1.407293799509095     -2.301912752593723     -1.672012091503167
H      -1.658434869566569     -2.638913309939171     -0.094030642326431
21

U       0.000000000000000     -0.000000000000000     -0.000000000000000
O       0.017407158352614      0.000711414597135      1.788514908366010
O       0.010712290656007      0.008566446438766     -1.790865626986384
O      -2.357649229651847     -0.040478490598815      0.773685490267503
H      -2.576682661780332     -0.123223973598809      1.745887907798500
H      -3.177800715508836     -0.220798229497416      0.230697155208531
O       1.080943466010765     -2.163549564555029      0.695554644856835
H       1.197208977085644     -2.398233877766884      1.660648217556798
H       1.326538424121293     -2.950310456179964      0.129259301453567
O       1.114183150645429      2.148854918472355      0.676022882843289
H       1.368179059777976      2.355192309496293      1.620962541874153
H       1.383872334574000      2.908938474247089      0.084803183989487
O       2.422822462801341     -0.064471189062969     -0.674800371853030
H       2.709838685885730      0.110743597702783     -1.616565452000412
H       3.229798345532174     -0.202969449323585     -0.100685264408908
O      -1.296860911130123      2.045894055663886     -0.761876013354136
H      -1.497650092091862      2.232111059003192     -1.723648820453631
H      -1.845527181083618      2.649880937212204     -0.183805800375768
O      -1.368493967032780     -2.059349210208846     -0.958434741675506
H      -1.354420890930246     -2.095930785650433     -1.957666314869240
H      -1.880046178800256     -2.841824243706759     -0.603403536584682
21

U       0.000000000000000     -0.000000000000000     -0.000000000000000
O       0.036907000018648      0.010277127317143      1.789361554088956
O       0.027395921840538      0.021565938728457     -1.789616831159268
O      -2.329593734318184     -0.435156160731622      0.894460743605861
H      -2.477015291631888     -0.532246351207147      1.878757639543580
H      -3.183741910302247     -0.622607510891195      0.409390764338486
O       0.576988636022510     -2.358644376310703      0.389396661424522
H       0.834348189532772     -2.812287600094488      1.242610518398290
H       0.329049485192500     -3.046870969612443     -0.292417340894275
O       1.059124162961509      2.205402749946343      0.539855709541176
H       1.254975246571098      2.495758906430213      1.476517684557171
H       1.306158957152689      2.937744761456658     -0.094690576111768
O       2.449320910637424     -0.139374404364225     -0.425449515352054
H       2.809766211903351     -0.344072880779273     -1.335492216849447
H       3.208596683931896     -0.000851500998931      0.210405582395326
O      -1.605287333275280      1.849827228979199     -0.634847765531730
H      -1.801900539919157      2.095233583124648     -1.584120628473808
H      -2.161864330231613      2.411956249026390     -0.023101894045983
O      -1.506094020450117     -2.038721759097120     -1.353640883254482
H      -1.464926408578632     -1.956474323028053     -2.349402193505520
H      -2.167463740764326     -2.746255967110424     -1.104672135130364
21

U       0.000000000000000     -0.000000000000000     -0.000000000000000
O       0.451963200886328      0.448710886635289      1.671621142038789
O      -0.061670672035957     -0.082610168503140     -1.786348486085415
O      -2.066941663326033     -0.552670388953720      1.489820885654792
H      -1.982004232841323     -0.572671727939230      2.486006400175779
H      -2.989521698759461     -0.836201998990521      1.228180093098288
O       0.409586933762487     -2.372904122065159      0.332500854093824
H       0.990934804496792     -2.961818450068822      0.893940581459713
H      -0.187783810451519     -2.938557614433335     -0.235992171834279
O       0.940329571326488      2.238918908347595     -0.453310203733782
H       1.268136992152827      2.876358607326097      0.243979495758030
H       1.164292293264052      2.593752992577507     -1.361018015670551
O       2.433303133817223     -0.350081237241138     -0.247861499340337
H       2.899682918274477     -0.588954900595297     -1.099582856126328
H       3.111467686815312     -0.124737844023791      0.451647753057509
O      -1.940361560783732      1.512549497226261     -0.438787719726214
H      -2.159243646258994      1.829350710605298     -1.361678625445612
H      -2.475995839687195      2.031332605371157      0.227515519022548
O      -1.694555916973176     -2.334109064017874     -1.183670328873897
H      -1.630140705940559     -2.256043899269184     -2.178535400449126
H      -2.498977431306642     -2.877379454837500     -0.943330341072983
21

U       0.000000000000000     -0.000000000000000     -0.000000000000000
O       0.438559816025341      0.448377496475315      1.675170000428847
O      -0.068535660508113     -0.095379665302363     -1.783846581738231
O      -2.064075515349416     -0.643191449586609      1.431511514044034
H      -2.022289293900232     -0.660660211241533      2.430485364584299
H      -2.976757359098555     -0.920327861603705      1.131166277316423
O       0.403028504477274     -2.391340754207198      0.206907792249405
H       0.919455856997063     -3.013175048210122      0.795656380673435
H      -0.220736683936308     -2.919141922440246     -0.369584112754645
O       0.985558796203019      2.208975327161264     -0.475118892611603
H       1.331659287243641      2.853984798120105      0.206186642720994
H       1.255810527118722      2.512340370234596     -1.388865932321272
O       2.447604436314950     -0.375440062420717     -0.091604902092061
H       2.982010783264962     -0.800764070834568     -0.822022141898404
H       3.045007760549080     -0.174249006512997      0.684688487817159
O      -1.924264309133479      1.529772354348631     -0.425475381471871
H      -2.138107198027974      1.854264947001915     -1.346874196417064
H      -2.461070625508261      2.045278657810826      0.242425980849604
O      -1.686846202362689     -2.477556629142761     -1.315144870762648
H      -1.601076573999229     -2.413517715955216     -2.309399661270671
H      -2.447184810803487     -3.084786720872831     -1.084587250607075
21

U       0.000000000000000     -0.000000000000000     -0.000000000000000
O       0.000477067087969      0.010338828638106      1.785534492897439
O      -0.001025189380818      0.001374724729154     -1.792478098693715
O      -2.432138125843931     -0.858078767817837      0.239325321686714
H      -3.005833783837060     -1.075686716715322      1.028958193707921
H      -2.674435272734967     -1.457044384352004     -0.523912703321415
O       0.285571766240158     -2.407439478018766     -0.183345350846334
H       0.386898993817221     -3.096689959398463      0.534057302389213
H      -0.353835039998967     -2.739574823944250     -0.876775266643196
O       1.435522809602607      2.020059336433052      0.257582994364436
H       1.573470919345654      2.500627590010367      1.123622527337365
H       1.722612846561413      2.607527306124183     -0.499028329411498
O       2.412825216643626     -0.625336537413800     -0.078150856786087
H       2.779044688794347     -1.332033669157871     -0.683512287835632
H       3.147277315697334     -0.266482401450637      0.497873294875746
O      -1.505755994877893      1.952447574275730     -0.293411144495692
H      -1.792336546075878      2.229013859657377     -1.210680285732471
H      -2.059918102078272      2.431273058201247      0.387493044716513
O      -1.649969574105212     -2.334504004487066     -1.917612177181863
H      -1.373736233506225     -1.854257713706555     -2.750113613656951
H      -2.181020572065959     -3.145975540089943     -2.161535903931029
21

U       0.000000000000000     -0.000000000000000     -0.000000000000000
O       0.431196689185477      0.425169620852804      1.678861254557937
O      -0.083816414269561     -0.098655888942185     -1.785019525380697
O      -2.407606453009573     -0.883233937921525      0.163328841948277
H      -3.056232992337426     -0.901723429173275      0.924211060949895
H      -2.543789567994836     -1.690824878698603     -0.410475159055293
O       0.222805139816098     -2.392503664785431      0.283516336093050
H       0.693114768048859     -2.999401533899438      0.924206456241972
H      -0.329726593390323     -2.937332517062148     -0.347253198306596
O       1.232853419425765      2.071688398981292     -0.575601097610023
H       1.738342427777813      2.647473792692189      0.067012349825099
H       1.407016858907747      2.382642342326216     -1.509932270945285
O       2.420910414958868     -0.594993872608239     -0.075809513863420
H       2.942310911016336     -0.830592965403990     -0.895952544184866
H       3.047318700394805     -0.475045693897796      0.694401557441880
O      -1.629585039427057      1.869312018087771      0.207710268873667
H      -2.305739751684875      2.112328840616681     -0.487816602684506
H      -1.710430859148349      2.494489774466557      0.983994190105312
O      -1.614064649575887     -2.814437493155474     -1.536693913140960
H      -1.354026684633570     -2.443826576615084     -2.428337230465634
H      -2.102201447916941     -3.677856456303703     -1.664091559043003
21

U       0.000000000000000     -0.000000000000000     -0.000000000000000
O       0.496852588986911      0.506135407575062      1.639563603364196
O      -0.500911701236658     -0.510619837678471     -1.643574236580100
O      -2.216493480923816     -0.986768298700629      0.598949757476427
H      -2.801701712787468     -0.932601435531858      1.408021618495876
H      -2.426499058343688     -1.822154032990355      0.090984864597242
O       0.352437784102683     -2.345849012621163      0.348089530132769
H       0.851918037492070     -2.903798144282109      1.010820427973567
H      -0.301385132859947     -2.919619939239366     -0.145167519509877
O       0.922130381957638      1.944029099317044     -1.253543786931991
H       1.514623160559161      2.686606604687488     -0.941244321958296
H       0.792829416390376      2.014292449622492     -2.242656683373660
O       2.468748182247675     -0.378057203983336     -0.159186669153745
H       3.001387166518026     -0.625485184302094     -0.968553771889475
H       3.088211580341718     -0.192451502630846      0.603581724296869
O      -1.678714107676078      1.824696776562621      0.284589930950075
H      -2.464393078806948      2.009739266067717     -0.305721708271526
H      -1.641849201153408      2.507522667233688      1.014240382670856
O      -1.735882715479398     -3.096012385402071     -1.011635342561269
H      -1.645026662404192     -2.769346019444519     -1.952397939060345
H      -2.199427994733958     -3.982083625847729     -1.009756264088852
21

U       0.000000000000000     -0.000000000000000     -0.000000000000000
O       0.525020097323190      0.514206714799770      1.629939398108528
O      -0.502981110840915     -0.502372904954622     -1.643716930134228
O      -2.233631544963654     -0.896814324136843      0.657030004778443
H      -2.740252665496973     -0.791203280443139      1.512705964286183
H      -2.480703396101021     -1.765881792058984      0.228454181177817
O       0.232375763840261     -2.378016818320481      0.441533057919543
H       0.759329286977934     -2.895775396909018      1.115510831107036
H      -0.474461171231444     -2.965839595120716      0.048028381589898
O       1.053479035906654      1.968624870952349     -1.093305232029669
H       1.641359341698341      2.641259588901395     -0.643906431105724
H       1.082164910239365      2.109195351944887     -2.082960252977522
O       2.399582116386540     -0.645192702922172     -0.298745493993241
H       2.726161310885364     -1.209036003601957     -1.057314384733578
H       3.161242794241588     -0.439546235880481      0.315731960762146
O      -1.678524993090362      1.839216034905008      0.236865250314504
H      -2.474204583627420      1.987772408120138     -0.350352761313160
H      -1.575209153348606      2.614042974826458      0.860539083684493
O      -1.984675015266440     -3.241312309067797     -0.652856381708972
H      -1.991907572205624     -3.191244122570155     -1.651575995424933
H      -2.451044345601025     -4.075144585410193     -0.357520331330884
21

U       0.000000000000000     -0.000000000000000     -0.000000000000000
O       0.006330349448702      0.007339727769799      1.786690348472347
O       0.004908967080131      0.010961064253831     -1.787813631969681
O      -2.309195057118520     -0.949147435713043     -0.147938378152271
H      -3.058073191141721     -0.837241684419911      0.505252744880987
H      -2.443290045394839     -1.793045042792245     -0.667414424650250
O       0.165589261742001     -2.409354677665028     -0.087002206883783
H       0.684083905727513     -3.011600470102310      0.520009580192817
H      -0.476649322974152     -2.953210470024254     -0.627141519856937
O       1.360118987596452      2.091194205605120     -0.171003035395518
H       1.619131668213995      2.720122265094728      0.562046708664154
H       1.568031479510599      2.507330960898046     -1.056216341102299
O       2.425777602302153     -0.651978494063259      0.036261901657507
H       2.957323266278655     -0.870527635878944     -0.782087339021195
H       3.047179573634272     -0.452459541548831      0.793923948755091
O      -1.656390325250413      1.849629717278480      0.256727536937655
H      -2.236713796414891      2.226837365599376     -0.465033544628698
H      -1.858915718143815      2.309094942255611      1.121525300735694
O      -1.917636823716958     -3.220540662472057     -1.487612711277057
H      -1.844171029844830     -3.159366866476743     -2.483032493988985
H      -2.430965516157933     -4.042580656499823     -1.241149931661825
21

U       0.000000000000000     -0.000000000000000     -0.000000000000000
O       0.013673861845566      0.017071466556105      1.787450836722833
O       0.000628916312391      0.008529626719904     -1.786057823717484
O      -2.262146814889879     -1.015632790175408     -0.079323169129719
H      -3.047072117642750     -0.744154971474856      0.477625718158787
H      -2.431763403955472     -1.917152941486338     -0.477433241212894
O       0.195745678486941     -2.425913684172581     -0.164005492693327
H       0.786708086229272     -2.992648994101132      0.410080320679183
H      -0.497028808332375     -3.000963275068355     -0.599185315781251
O       1.303486531149561      2.115741499242091     -0.217018350394664
H       1.583191356878463      2.757877310781484      0.496723066368164
H       1.514153183291116      2.502694587936523     -1.114730369265587
O       2.416689741671902     -0.649787057852445      0.172141594462740
H       2.992654347098992     -0.891107347211683     -0.608902124696943
H       2.994142012682321     -0.461245853293323      0.966497364183276
O      -1.699661060198803      1.806455563625492      0.300762333627845
H      -2.236017780368047      2.286336619365855     -0.393525532513286
H      -1.894269091340907      2.196460045118775      1.200775788321802
O      -2.071080056986591     -3.498155853098230     -1.027207096789956
H      -2.273817671904895     -3.734515126229155     -1.977486925841514
H      -2.444055535996736     -4.201397372236189     -0.421946278780326
21

U       0.000000000000000     -0.000000000000000     -0.000000000000000
O       0.012983301004609     -0.001733993095493      1.800277988587482
O      -0.001119843418948      0.007329989163844     -1.799881576551829
O      -2.365268075118339     -0.011505851051632      0.746205648275190
H      -2.648346200787186     -0.085379723654319      1.702453223809107
H      -3.159995016093667     -0.138068231170103      0.152580300748025
O       1.185268063987415     -2.053170014429447      0.724825106478975
H       1.347422921399541     -2.338882450926771      1.669321906816814
H       1.403570774412546     -2.807861104390918      0.106128666086912
O       1.099218153485455      2.106837510973341      0.688184589484114
H       1.389605925794101      2.356729387113390      1.611888542021305
H       1.340197890972282      2.840672395741019      0.053034900025960
O       2.379569894949679     -0.062086889265274     -0.706012221948553
H       2.724041638928840      0.192244191289819     -1.609701836287255
H       3.148297094727857     -0.180922705543700     -0.077572454675155
O      -1.196292052294555      2.051194606605279     -0.728337270899359
H      -1.496509848517344      2.243792123500324     -1.662561800290980
H      -1.734104990517138      2.597363515163772     -0.086109299845141
O      -1.140880655864799     -2.069801305320502     -0.734507028775537
H      -1.406424131703398     -2.299747805218418     -1.670782239183382
H      -1.657517411833259     -2.636586491265161     -0.092758623731890
