21

U       0.000000000000000     -0.000000000000000     -0.000000000000000
O       0.186767965793977     -0.000376310769082      1.841693813930371
O      -0.185047603086116      0.000231324078032     -1.841007884800078
O      -3.946315593128376     -0.000388238056009      1.371003979374659
H      -4.040934474147724     -0.000614507373166      2.366517523309066
H      -4.853355056412083      0.000151704319736      0.949958708045983
O       0.732153500412733     -2.277548190114508     -0.045547002580506
H       0.758024010962498     -2.889472677869137      0.744945968906357
H       1.092548086999527     -2.753740422434511     -0.847642196330617
O       0.733240160460186      2.277525289460832     -0.045429992807308
H       0.759560808912357      2.888876631401424      0.745491469900902
H       1.092456571306566      2.754552989636063     -0.847557254184314
O       2.376221899887078      0.000766988457472     -0.272850996698314
H       2.860967138656120      0.000189317418797     -1.147506197212731
H       3.039273134320534      0.001517707317129      0.475722644927854
O      -1.925957203167379      1.401436523239490      0.223272481259962
H      -2.055912703955700      2.339768732135286     -0.097108906407288
H      -2.768323886066280      1.076262270974524      0.653016680994901
O      -1.926407455791458     -1.400564620533832      0.223368111317555
H      -2.056156582331913     -2.338675376505216     -0.097744600503058
H      -2.768949741986827     -1.075797089231014      0.653075624149428
21

U       0.000000000000000     -0.000000000000000     -0.000000000000000
O       0.046121282506253     -0.000616656113315      1.851001479540006
O      -0.047333524108359      0.000158136599878     -1.849650214970024
O      -3.842440087172565     -0.001673888371221      1.415474804875579
H      -3.856881903937744     -0.001231581974409      2.415370418574116
H      -4.780335970267783     -0.000527866182578      1.068559830989778
O       0.733697289271653     -2.277753046147423     -0.007486602841185
H       0.694605406515242     -2.898109698971179      0.775858434801785
H       1.147919562850733     -2.749452322854923     -0.785895043458705
O       0.732263052827470      2.278435463444037     -0.006044843734299
H       0.692784670619254      2.898087519886428      0.777838302075672
H       1.146010187626062      2.751130554169710     -0.784101820857314
O       2.390978691178105      0.001005850098904     -0.076306623621065
H       2.944520882295430      0.001128076249343     -0.909127749502127
H       2.991655696814019      0.001604817022504      0.723184949904822
O      -1.936011684495799      1.399834523833242      0.095454845858129
H      -2.092415134569669      2.302179386454669     -0.306181444466474
H      -2.760812858839103      1.101157163269902      0.575553645157630
O      -1.935391327086391     -1.404033014211515      0.095433634331220
H      -2.091349104228533     -2.306678778145218     -0.305699506410634
H      -2.760184298069330     -1.105696745469191      0.575758551205250
21

U       0.000000000000000     -0.000000000000000     -0.000000000000000
O      -0.073667370285712      0.000039339655586      1.850220257594581
O       0.072184474742916     -0.000762461624135     -1.849286399177772
O      -3.561477987856501      0.001390653655999      1.646102344277322
H      -3.384163334012270      0.001577671781506      2.630256538779546
H      -4.548451400548185      0.002717408399326      1.485224370764528
O       0.739858298418192     -2.275695783216332      0.021741593269106
H       0.533276709247220     -2.942503026957843      0.737766834939708
H       1.311698344789209     -2.704173433196460     -0.677833895748270
O       0.740641763230241      2.276472419848580      0.021623600701806
H       0.534283755833275      2.943055109797290      0.737922344414159
H       1.312547683218098      2.705071940671768     -0.677823373294778
O       2.392571653256589     -0.000135775589684      0.072417556093703
H       3.002198131992241     -0.001881625947904     -0.720269335705887
H       2.936716997433413      0.001873261504653      0.911406118697890
O      -1.933485709287640      1.402405421344782     -0.015216559309572
H      -2.145724057395250      2.236187205018557     -0.524885884270698
H      -2.713638537427611      1.155359085485168      0.559526576955268
O      -1.935514399505778     -1.404895223787087     -0.013277153371029
H      -2.148326950755981     -2.239814800033037     -0.520840074821821
H      -2.715268342293875     -1.156196510484160      0.561294633882648
21

U       0.000000000000000     -0.000000000000000     -0.000000000000000
O      -0.089930641272345      0.000541742567460      1.849256622481214
O       0.090896893705388     -0.001156129454459     -1.848852579701823
O      -3.300066563345186      0.000464054084796      1.792911311999659
H      -2.993403019849299     -0.000005753725568      2.744729178175309
H      -4.299670001555001      0.001301596700740      1.764764112467860
O       0.741494998315084     -2.275735420701084      0.060789985251960
H       0.478422063467048     -2.947257451184230      0.753502619412934
H       1.367582082640997     -2.699698672280256     -0.593633519942263
O       0.743207300462472      2.275682660710909      0.058303977775632
H       0.483869112494674      2.946495681909379      0.753108694838032
H       1.365873739076146      2.700276958283757     -0.598967799111817
O       2.393413236731024     -0.000575233548037      0.063993699881558
H       2.998257597490283      0.000997148027667     -0.732348454518110
H       2.942598488451793     -0.002085330749052      0.899692975278419
O      -1.925598104771121      1.407292211953000     -0.075941351606468
H      -2.168796767727088      2.202473146821355     -0.631406644094054
H      -2.674625068433583      1.198168214731727      0.552728483436370
O      -1.929530768875192     -1.415551727434111     -0.074632780157571
H      -2.172779761795792     -2.211785707560456     -0.628565426185294
H      -2.678301997110019     -1.205528329320781      0.554041873389585
21

U       0.000000000000000     -0.000000000000000     -0.000000000000000
O      -0.064521936843278      0.003022950011538      1.849137708016704
O       0.080980388859361     -0.003450066598245     -1.850630873141331
O      -3.073823879710859     -0.000402030776995      1.854888972993467
H      -2.711413560578495     -0.001651563728438      2.786906783581752
H      -4.073341193963870      0.001429344227371      1.885901624831733
O       0.748923572798224     -2.275437522998359      0.057560412511436
H       0.477768170962305     -2.949762961915931      0.744408248996219
H       1.376342195523040     -2.698970382976586     -0.595865779477192
O       0.754061421119552      2.273313750320767      0.049274926530789
H       0.485952673462692      2.950945674367690      0.734061517332870
H       1.382480399445197      2.692333383662252     -0.606096826411403
O       2.394879041654707     -0.002857153701250      0.061552929391663
H       3.004838039375259     -0.009531025221329     -0.730851942210395
H       2.938672093648029      0.003429512439370      0.900748731593166
O      -1.910400918632937      1.419864647581228     -0.148331261366180
H      -2.166067605070851      2.168941465815837     -0.759492832335242
H      -2.646708536715469      1.260002428492354      0.509160306991627
O      -1.918948634229953     -1.431053326236362     -0.149659338287965
H      -2.172426944014171     -2.181050666472336     -0.760603473301881
H      -2.655924831840506     -1.272832294856545      0.507480060458297
21

U       0.000000000000000     -0.000000000000000     -0.000000000000000
O      -0.075552740706724      0.010699644979390      1.849171782553779
O       0.114590307136449     -0.011626689968423     -1.850849847397513
O      -2.949311309916658      0.000347818225185      1.756166655809885
H      -2.588412293778594     -0.001348521038128      2.688770013397494
H      -3.948876681408276     -0.002012853655427      1.785551947081149
O       0.741937235500141     -2.274465558664630      0.125282273009617
H       0.400893511103002     -2.952458986248185      0.776445916192213
H       1.431064213093016     -2.695736430380037     -0.464323409966600
O       0.767695058879102      2.269378988076384      0.090244852574760
H       0.454294103847767      2.952814604435142      0.749559344814823
H       1.442049594420950      2.681778886165012     -0.522268236632833
O       2.397625615677008     -0.012819774250170      0.063136377311120
H       3.005159466600801     -0.002117754301982     -0.731085308838746
H       2.943977179435784     -0.027378784289731      0.900565779711708
O      -1.883625906218407      1.437914046922767     -0.287560015255340
H      -2.096566261467876      2.155047093658135     -0.951168784325097
H      -2.652406073097159      1.327761712519935      0.342395156355692
O      -1.903644793380845     -1.450661910840581     -0.298916676916740
H      -2.114898590343666     -2.161497918052259     -0.969799680219217
H      -2.673205172282662     -1.347843343059143      0.331325471264311
21

U       0.000000000000000     -0.000000000000000     -0.000000000000000
O       0.016508847474465     -0.018763309902641      1.851475774535189
O       0.061806917669200      0.017092273503803     -1.856230598522769
O      -2.762573829668590     -0.030991997079719      1.754633234148444
H      -2.417488119495170     -0.037029710678747      2.693184990126026
H      -3.762484852698035     -0.035759958984939      1.767091667576443
O       0.763101994389752     -2.272122442386970      0.090186493472438
H       0.764405854481183     -2.840535139306578      0.912929044899942
H       1.118567195325919     -2.800687392522916     -0.680698442436415
O       0.776883707776612      2.267181812724703      0.136085449175783
H       0.445285709189057      2.945258272596642      0.792023770895338
H       1.471388198439882      2.683129724598710     -0.450984263086914
O       2.400607799389472     -0.000203803763373     -0.027960543973212
H       2.972300593774773     -0.255386919363884     -0.807735464293392
H       2.983534856547049      0.241986271779071      0.747629562553651
O      -1.859542947562868      1.470102823067770     -0.337186741478060
H      -2.029264090511621      2.153026034890676     -1.047687002132238
H      -2.645461907274091      1.428529750489210      0.279743617965213
O      -1.878502793855491     -1.476170633206621     -0.393798166545066
H      -2.041811218964851     -2.145293646720023     -1.118784201634740
H      -2.661200271268302     -1.461146624076723      0.228422805458679
21

U       0.000000000000000     -0.000000000000000     -0.000000000000000
O       0.076477878288667     -0.026007736543233      1.852153608869644
O       0.045493790661272      0.028297119797576     -1.860187077906990
O      -2.642610355261894     -0.009482840552488      1.659086772265460
H      -2.438360213999468      0.103932466991801      2.631413285227497
H      -3.614532557550241     -0.214942079725038      1.544397044139499
O       0.752417721260223     -2.278127287994049      0.115834558993478
H       1.345009040237801     -2.647420939040596      0.831696087481443
H       0.520708442483093     -3.003595290329420     -0.532244901964905
O       0.824097038962825      2.251707359915616      0.163380078064209
H       0.566520889469961      2.902239096666326      0.877847002905754
H       1.460616610437236      2.689047017719735     -0.471896915728112
O       2.402979924376428     -0.035178063675929     -0.091891476147702
H       2.942911672517307     -0.407733583239277     -0.846660376005412
H       3.016573343506862      0.314296593088466      0.616183788410545
O      -1.809754114201213      1.530109006041504     -0.412508750942832
H      -1.928325871255306      2.217540179422969     -1.129013545269073
H      -2.621879375119914      1.513032270002111      0.170724431981437
O      -1.845871002240493     -1.503160108722236     -0.533596503207875
H      -2.108532398433961     -1.797849834290703     -1.452382091141251
H      -2.486370728581631     -1.882676130966831      0.134031903479982
21

U       0.000000000000000     -0.000000000000000     -0.000000000000000
O       0.098644544326480      0.057247937251464      1.854496765244877
O       0.061644702972242     -0.044562479178939     -1.863228704590727
O      -2.564113685638738     -0.024344522199695      1.498739633603493
H      -2.459260311960854      0.005726970491679      2.492772568347447
H      -3.514880824951675     -0.233460955171729      1.270021107323376
O       0.763263672618111     -2.263707490254289      0.300496959299757
H       1.215169462567529     -2.615707696614356      1.120178001982010
H       0.688649179863340     -2.993938910842295     -0.378616249125002
O       0.867233258399488      2.243032707166053      0.094275973213535
H       0.760811532302955      2.865305466686142      0.869808712028531
H       1.378540053401337      2.701066422031452     -0.632890085834563
O       2.406308966751109     -0.063007797828888     -0.141254670199790
H       2.924040140530049     -0.300688962098209     -0.963119680921783
H       3.040170620758559      0.132915177437397      0.606965612432100
O      -1.752728033777071      1.564268584230660     -0.554649515791856
H      -1.750941928935667      2.231019217858280     -1.299928257194469
H      -2.611250421792899      1.634412850986199     -0.046693719371608
O      -1.770754712191055     -1.599471039871545     -0.596803662697581
H      -1.988130155602393     -1.873702780528196     -1.533577311461330
H      -2.371728348461295     -2.082606561492684      0.039915079178292
21

U       0.000000000000000     -0.000000000000000     -0.000000000000000
O       0.168206640088380      0.046827641354068      1.851232118984771
O       0.011232348561556     -0.021682814675771     -1.866546603349917
O      -2.447854616542701     -0.055182306798325      1.387555283768115
H      -2.443415358584567     -0.121268786376894      2.385359307715550
H      -3.383059596405941     -0.163636991785006      1.050465938128955
O       0.795317317633133     -2.258314081653067      0.373913619439878
H       1.045188438617622     -2.628008430685174      1.268838482873496
H       0.934337409486189     -2.958330885580269     -0.326550432657525
O       0.930177996365379      2.218993685051346      0.107356099714921
H       0.879120103190172      2.834353282909237      0.893947262180330
H       1.420095070294449      2.670895642929719     -0.638140970124036
O       2.394507066660136     -0.101090468250180     -0.298082732778961
H       2.857090485822628     -0.170623033551511     -1.181927630189447
H       3.073910189638354     -0.113085332595117      0.435584439525205
O      -1.698981968985595      1.651285109926500     -0.582723452142305
H      -1.731345790586643      2.165573183155479     -1.439730080346428
H      -2.468219913946986      1.920428572092238     -0.003210914913802
O      -1.688763340261169     -1.688618116296992     -0.645293721638133
H      -1.925439073106694     -1.894454410601467     -1.594828353670602
H      -2.194185978156605     -2.299458890269366     -0.035850118049047
21

U       0.000000000000000     -0.000000000000000     -0.000000000000000
O       0.223928657000885      0.072171007782307      1.849061695811266
O      -0.078831253094081     -0.049896382216323     -1.865764998026646
O      -2.353300437520303      0.009350611837380      1.216450578299953
H      -2.409418396458498      0.033562805420457      2.214581103014285
H      -3.272857827151556     -0.075934445353265      0.832861388939064
O       0.957994697843638     -2.206099015122185      0.454969879396757
H       1.315693116352034     -2.514998843432899      1.336237567143337
H       1.074896845020087     -2.930349538250560     -0.224585171893286
O       1.025793280633690      2.192826758662392      0.177364332360666
H       1.205683588240884      2.679370235766867      1.032299956905623
H       1.331728143855538      2.750490014292135     -0.594267414514660
O       2.377048178875221     -0.089619359144028     -0.510349597731076
H       2.751912882338367     -0.134349827208120     -1.436349402981733
H       3.125132116236526     -0.103161091041739      0.153116335199333
O      -1.564236025340255      1.819675630828359     -0.610424398849645
H      -1.664276712970104      2.220030045202325     -1.521307598667178
H      -2.189688264385774      2.274022061912422      0.023908965584327
O      -1.538181952518718     -1.860866759130089     -0.562371681800684
H      -1.783018728993417     -2.096842848476066     -1.502781293694596
H      -1.967829698367509     -2.508843469940987      0.066539279094212
21

U       0.000000000000000     -0.000000000000000     -0.000000000000000
O       0.191157039334385      0.102735258942442      1.858802529386845
O      -0.098115450136214     -0.029305873460804     -1.868098677354405
O      -2.319605771985974     -0.141741343056289      1.000727406458212
H      -2.479913055705135     -0.111045588559269      1.987317161849197
H      -3.196560772371153     -0.177396803913393      0.521479437854798
O       1.028387083538766     -2.162954940283241      0.638560641962406
H       1.350037900825039     -2.412061648191058      1.552063022810099
H       1.212244985030508     -2.913791363120557      0.004178313866867
O       1.151225826155986      2.146152898134256      0.234273015742924
H       1.538237583399493      2.485581035454985      1.091600514048136
H       1.302418154768026      2.819544071443922     -0.489387959768055
O       2.364943404365705     -0.146600626711689     -0.589043849077275
H       2.721480654391123     -0.039180253290348     -1.517129002885012
H       3.122284863594183     -0.317076042087264      0.041330679981604
O      -1.446710839665629      1.919424099239023     -0.525378571995922
H      -1.623933355185711      2.258632144143939     -1.449245490044468
H      -1.924320184406005      2.495023167204957      0.138379687292364
O      -1.331346399032154     -2.047298922328993     -0.662195924818415
H      -1.521605833946158     -2.245521456981572     -1.623709925851220
H      -1.719476054344204     -2.769607937092553     -0.089810514575768
21

U       0.000000000000000     -0.000000000000000     -0.000000000000000
O       0.119044260803072      0.141084087862367      1.858601303013206
O      -0.016827180375807     -0.019708627307729     -1.863466654364868
O      -2.301113980040169     -0.366763765396873      0.861783500340004
H      -2.551279278533443     -0.356299532909732      1.829930092168032
H      -3.122925602932365     -0.494423097812815      0.306509917926423
O       0.847427082245904     -2.202914534332071      0.739712964142786
H       1.068366021717293     -2.468438082364709      1.678160208512665
H       1.009407644329622     -2.976778456465301      0.127424692552012
O       1.128475167793590      2.146975116069261      0.159024965619859
H       1.693276647177724      2.435107920038431      0.932315839846601
H       1.105859123996228      2.874561815482707     -0.526617878286212
O       2.381906701542792     -0.237255077845933     -0.373980878748732
H       2.857862010763195     -0.042242345317120     -1.231556868254359
H       3.044672628805015     -0.526264935355848      0.316826350456597
O      -1.506705376803723      1.861082504580784     -0.483698916365903
H      -1.799174930679761      2.142029040743626     -1.397772547904223
H      -1.934802337016252      2.452435556094338      0.199700352818957
O      -1.285435292765611     -2.140843992534960     -0.900702297405239
H      -1.456171364768901     -2.282638781575000     -1.875763029625534
H      -1.718793142898333     -2.873834415683576     -0.376368421615435
21

U       0.000000000000000     -0.000000000000000     -0.000000000000000
O       0.167527508954780      0.214177727035971      1.847383927134669
O      -0.068816774056947     -0.064521001384535     -1.858370000849267
O      -2.227989363524708     -0.551451039165773      0.911672014378142
H      -2.452166629964642     -0.532900273240180      1.886043823440316
H      -3.050807677903729     -0.763211652110993      0.384294100233521
O       0.673473480158593     -2.220318561680048      0.766365898381627
H       1.134065690274214     -2.423941621261418      1.630305980556039
H       0.524839349881166     -3.069510806703201      0.259630833175744
O       1.132979179647519      2.136259978980449     -0.032059354757261
H       1.470805550500745      2.618309196319871      0.776335286008367
H       1.316797908990968      2.684338038225893     -0.848037979303461
O       2.363432737898992     -0.322555979764374     -0.338280661985013
H       2.792799019471419     -0.672985984284781     -1.170652819244310
H       3.067684659979614     -0.134657387104151      0.346353071570423
O      -1.586068106724765      1.790977064506858     -0.374933110438492
H      -1.895939249491867      2.098745737401887     -1.274520970997228
H      -2.028453743863107      2.338543000040405      0.335324937243457
O      -1.348960334246410     -2.244133247668351     -1.020185973945412
H      -1.498022561764752     -2.341153939233273     -2.004242597181868
H      -1.863915257574915     -2.950036887686382     -0.533851235366080
21

U       0.000000000000000     -0.000000000000000     -0.000000000000000
O       0.312676876119260      0.177598500474345      1.829504019846284
O      -0.219130039933475     -0.046605432285541     -1.844072344167039
O      -2.135326475040930     -0.675873974407058      1.017991264868287
H      -2.321095757368185     -0.671743701041686      2.000575976018193
H      -2.948279454910407     -0.987979041541357      0.526363479251531
O       0.550445259978995     -2.275608582793423      0.592682125069596
H       1.231435992122629     -2.580819930934726      1.258337933802792
H       0.099395801069769     -3.071345766932544      0.188508004923292
O       1.159920468577393      2.105095853123943     -0.178317208770386
H       1.320495394112301      2.733837803347942      0.582537083008258
H       1.552630726841703      2.487032440430267     -1.014919322281210
O       2.323935832852014     -0.405483146744644     -0.469462025869605
H       2.667199600843500     -0.861235242070458     -1.290717170870486
H       3.092006821425833     -0.165212793631177      0.124117887811750
O      -1.605050065295454      1.791033490947641     -0.123438181253208
H      -1.812908906417050      2.320405667413597     -0.945970734378786
H      -2.160310455109150      2.126080770080898      0.637764301828228
O      -1.548047946098117     -2.268117991547416     -1.133730633275381
H      -1.626676630998255     -2.242067667188384     -2.130294183939193
H      -2.161851732762192     -2.968336493327218     -0.769122677736707
21

U       0.000000000000000     -0.000000000000000     -0.000000000000000
O       0.265938239466131      0.262037425249076      1.823064176658823
O      -0.204095097511507     -0.154893569765569     -1.836148170886533
O      -2.137214874884663     -0.754848501103857      0.895088799841488
H      -2.325523357765702     -0.888488063444500      1.868063816300001
H      -2.945270219224560     -1.005028629749665      0.361744198561509
O       0.493437650327889     -2.259703777100289      0.661902085886999
H       1.116916276653502     -2.623304939825718      1.354049900287828
H       0.006841670972812     -3.014548968587938      0.222091797508649
O       1.155822047022202      2.085718145446367     -0.314280703428789
H       1.209927195317776      2.821182317583602      0.361119240626884
H       1.644762002384731      2.357671920647633     -1.143122584732978
O       2.329712637715915     -0.442538689418057     -0.396093650687731
H       2.678421093368911     -1.104475000695175     -1.059601550240513
H       3.096803658616897     -0.007251919825355      0.075177814468647
O      -1.613525984376442      1.774137826890424     -0.154257990634857
H      -1.755023560097251      2.350987834022278     -0.958759392334763
H      -2.250600862192992      2.045953407510844      0.567026897732432
O      -1.462662783435078     -2.485471965366690     -1.183113465144390
H      -1.349470952638502     -2.581927034375471     -2.171993654602866
H      -2.183092753663238     -3.103392032696235     -0.868223883880571
21

U       0.000000000000000     -0.000000000000000     -0.000000000000000
O       0.236705473586422      0.161957957963597      1.834745919274581
O      -0.195419757179892     -0.095764343313354     -1.838881966477202
O      -2.162186918289789     -0.844953201362872      0.694784320971650
H      -2.734202509600503     -0.602889297124843      1.478495511119206
H      -2.609132588753378     -1.566595610108813      0.166133394978694
O       0.375900023773356     -2.323710327073112      0.428281348609537
H       0.965987487583157     -2.772893036454872      1.099125353313297
H      -0.121638971572584     -3.015945832409104     -0.094466155700505
O       1.188644679380133      2.074891105337103     -0.213984790012306
H       1.405228093552136      2.701178540594465      0.534918189781709
H       1.540594501749139      2.447638332277819     -1.072582965728066
O       2.326776275110099     -0.475019580024874     -0.351439565300018
H       2.679512887036380     -1.121609802692918     -1.027825525057358
H       3.090066140118217     -0.067569701966840      0.149931733087099
O      -1.598376330872575      1.787539480797461     -0.071900546914645
H      -2.288781498474976      1.903569988563599     -0.785957705561930
H      -1.688127050955061      2.521801177979771      0.601007001189572
O      -1.612649455345348     -2.457230737857560     -1.445286229350284
H      -1.578256136687547     -2.202397465903179     -2.411659399060995
H      -2.100278778967251     -3.324669267213578     -1.346452831489479
21

U       0.000000000000000     -0.000000000000000     -0.000000000000000
O       0.274842021163960      0.255270613420861      1.815846401346629
O      -0.254824521339934     -0.221443302196902     -1.819765936447588
O      -2.149245028715736     -0.883535088363830      0.645634575230499
H      -2.788456459821671     -0.654214475665183      1.379678717591856
H      -2.512841628965669     -1.648392015607094      0.113853235641862
O       0.345374937676992     -2.322621267316736      0.427042092235685
H       0.941043893753347     -2.816939471333093      1.060151883618625
H      -0.207792751553331     -2.976306954464989     -0.089388474258110
O       1.158467075431544      2.064103579275001     -0.385989164654603
H       1.564995941891123      2.646313257228250      0.318117483256539
H       1.311419942001671      2.472876154392779     -1.285717124895676
O       2.322458907128298     -0.486625235672905     -0.340415274284337
H       2.677639603318716     -1.127532796377317     -1.020918155751866
H       3.083364307022711     -0.090564291720584      0.173548441445792
O      -1.613160986805550      1.770999339921535     -0.077690121710293
H      -2.419889678641541      1.785287961808393     -0.668439351970617
H      -1.591439499136953      2.602759309484435      0.477020190079733
O      -1.680190481017547     -2.669953179601185     -1.351731235565956
H      -1.622071086024961     -2.425995411041820     -2.319773973819403
H      -2.168780996446792     -3.537117054477653     -1.255262990314924
21

U       0.000000000000000     -0.000000000000000     -0.000000000000000
O       0.315296675070829      0.294540737887177      1.800637209654213
O      -0.307984509996121     -0.280064749447511     -1.802667519004231
O      -2.141947500414345     -0.915633263272925      0.581908420379220
H      -2.833605698448904     -0.678704199728255      1.264164644930842
H      -2.453355738437124     -1.704063289160401      0.051434100953084
O       0.318039061924797     -2.333525812122029      0.377224176447671
H       0.946821668442906     -2.862804265997301      0.946870340310551
H      -0.278413705870277     -2.956729573365128     -0.128603034922030
O       1.141072309390406      2.039370227996124     -0.525858130386004
H       1.552566662203825      2.663568518272138      0.138256989167200
H       1.280075566447331      2.396454935712677     -1.449529395524501
O       2.319536528138836     -0.500820459201957     -0.328108986632508
H       2.709706586462186     -0.901872987700702     -1.156917887991993
H       3.047350319640773     -0.338598561201075      0.338202607674965
O      -1.609072411150371      1.773797973338814     -0.017594945571032
H      -2.231990481692346      1.979191435797039     -0.772437050233778
H      -1.758456045815316      2.426735407586842      0.724939388080883
O      -1.765782418104878     -2.855714255581459     -1.278729918721613
H      -1.725261532551730     -2.632873914132284     -2.252742362203113
H      -2.252624179899922     -3.720335169449543     -1.154569642166606
21

U       0.000000000000000     -0.000000000000000     -0.000000000000000
O       0.325848525796207      0.289276158565764      1.798315934763367
O      -0.324827837055718     -0.285979155202563     -1.799676629034074
O      -2.148204384762645     -0.929094095961643      0.504358610613908
H      -2.863802377218683     -0.690050619452944      1.160695208352846
H      -2.428231514840574     -1.736660655476568     -0.014699245866029
O       0.281597395962790     -2.350142698679738      0.296321116552855
H       0.916701770031601     -2.902243476104641      0.836531414127311
H      -0.353779663962890     -2.951399992520591     -0.188225742195990
O       1.152240495519742      2.035278468526408     -0.514767331471308
H       1.580295444997311      2.648198505354193      0.149384751023946
H       1.281504361331820      2.400233367992815     -1.436775343557311
O       2.313655361432711     -0.515530618299867     -0.336714262387679
H       2.665815655148930     -1.150182412194957     -1.024609769013105
H       3.076703734486076     -0.125707573319404      0.178839007394186
O      -1.600483576829066      1.779698952109205     -0.000396509664758
H      -2.415408457380012      1.823199783772923     -0.578328267490533
H      -1.554744619784704      2.597400455536308      0.573425935958930
O      -1.878537634831745     -3.021466605638062     -1.202582487100375
H      -1.881771421809692     -2.884209954932099     -2.193112726143466
H      -2.351690756427399     -3.874573742259802     -0.982731771910855
21

U       0.000000000000000     -0.000000000000000     -0.000000000000000
O       0.262360841672191      0.180977735662661      1.822703117111380
O      -0.263757445753488     -0.182909646153265     -1.823376087370949
O      -2.162631581559784     -0.962716060524316      0.357167847497194
H      -2.934093965834227     -0.679516944604232      0.926943286061962
H      -2.395311415239015     -1.808840267620987     -0.122346407936403
O       0.263012151847663     -2.368174705302838      0.149418706761196
H       0.952242977490087     -2.935316290001042      0.600319241125788
H      -0.414158492660799     -2.955644188548402     -0.293660884814836
O       1.166828021820734      2.060922892669697     -0.339886711083463
H       1.572815680643969      2.627656772418122      0.377041967676514
H       1.327304631267946      2.485188183241955     -1.231091637593615
O       2.320636112153144     -0.505267060476609     -0.293825475947943
H       2.700247891411819     -1.049410345829392     -1.042025303569911
H       3.061024057090705     -0.198672964130988      0.304359905917200
O      -1.605619865518577      1.773791316157018      0.041922598315958
H      -2.362587503328534      1.883533432790241     -0.602248701219558
H      -1.615413734770016      2.527320106321144      0.699264550817756
O      -1.959090459378676     -3.198343051510114     -1.158937586831518
H      -2.000531963455737     -3.123467024646628     -2.155268948548577
H      -2.415235592343481     -4.039561835961256     -0.868622974111002
21

U       0.000000000000000     -0.000000000000000     -0.000000000000000
O       0.219042459926320      0.064140319956399      1.836349578676952
O      -0.219826156499582     -0.062997510412028     -1.836808874117647
O      -2.179225382712532     -0.964557632564162      0.247352981568292
H      -2.986829296916580     -0.606170260855366      0.715684498297587
H      -2.384138389331724     -1.869706945774915     -0.125092156018960
O       0.238971115454074     -2.376875622246959      0.017773762276210
H       1.004594889395489     -2.937737764290749      0.332819623061204
H      -0.499448056089877     -2.970382283851247     -0.302362099082183
O       1.192289667532196      2.064349601501131     -0.205656799380572
H       1.559880793390911      2.602231308291625      0.552999930432107
H       1.402210880422158      2.520739271149666     -1.070319481480886
O       2.323631679933437     -0.511579403079313     -0.251696572445388
H       2.740361284839774     -0.921506087868009     -1.063051334243677
H       3.032906422706233     -0.320262639611923      0.426777624028545
O      -1.588309492347563      1.784041093988335      0.141394617082358
H      -2.256859663937187      2.018109409161604     -0.564475549378466
H      -1.662939365849819      2.432194683890079      0.899238470312376
O      -2.091389133529507     -3.430752780443476     -0.855640887370995
H      -2.246865633446422     -3.537906032768735     -1.837651701206416
H      -2.490358422568907     -4.207479290152715     -0.368281230117445
21

U       0.000000000000000     -0.000000000000000     -0.000000000000000
O       0.218086482371336      0.024936990270237      1.837495009371738
O      -0.215469918202245     -0.020137280793457     -1.838204370683225
O      -2.177764079943765     -0.958817745172288      0.248174546833054
H      -3.003779385693877     -0.531158767458324      0.615334611991557
H      -2.372796598408576     -1.910165873041333      0.009639316015180
O       0.221109315821643     -2.381931473085040     -0.020727061767741
H       1.037302577943008     -2.927045301683148      0.170791795629638
H      -0.552278280714566     -2.990633992130242     -0.197794475009058
O       1.205614191000258      2.060897068041299     -0.148799102729710
H       1.571928248612331      2.578732803850341      0.624285732146054
H       1.419208161262345      2.538436934294329     -1.001050997422070
O       2.317942712202707     -0.524932542267927     -0.272093111374212
H       2.731135725971727     -0.898508084066544     -1.102582634452224
H       3.029276534252507     -0.369905841790810      0.413451136466291
O      -1.582429263416125      1.788401247585687      0.154278545703095
H      -2.239852489314359      2.035969269322504     -0.557412944103323
H      -1.666693135973759      2.424087080904466      0.921613623162350
O      -2.174541003474262     -3.579544215155508     -0.454153253169198
H      -2.424897752891012     -3.843158253427265     -1.385726726840242
H      -2.506234857247889     -4.270370507180736      0.188293804272482
