21

U       0.000000000000000     -0.000000000000000     -0.000000000000000
O       0.050147377127768     -0.008685615115459      1.792733336934031
O       0.069713161323925      0.000268552377501     -1.800548534023389
O      -3.066873618308041     -0.017921394384834      2.482083170636682
H      -2.851945898185800      0.016220762401268      3.458116155864666
H      -4.058823211800584      0.007832924974885      2.358096401163897
O       0.651886631777235     -2.329234244469428     -0.369842685454070
H       0.942872164963693     -2.939456470818949      0.367012967944361
H       1.165966777987051     -2.541400534683210     -1.200930568033172
O       0.818927115644403      2.293324297642298     -0.305495188242808
H       0.888214882052168      2.882228108209330      0.499732423880529
H       0.471722552259155      2.824705402558330     -1.078206720771394
O       2.398755725185223      0.035593771254764      0.296555985944812
H       3.060261247256159      0.217064905271015     -0.431096865206417
H       2.884844787839453     -0.208693457846018      1.135627599614464
O      -1.702999690656191      1.611231170983327      0.888611374441551
H      -2.242450644343279      1.890835776889986      0.094373417074949
H      -2.276203630620695      1.076262699525600      1.509293239615130
O      -1.712154841521309     -1.622644509976097      0.848304613650940
H      -2.246746997503049     -1.865898552627335      0.038960003798854
H      -2.288393078108613     -1.113773365707094      1.487835420747135
21

U       0.000000000000000     -0.000000000000000     -0.000000000000000
O      -0.032405682587585     -0.047615577784596      1.797154729638762
O       0.052323109501246     -0.042072593340998     -1.796882812585157
O      -2.432029676134233     -0.153476377326109      0.704681029554198
H      -2.625546347965568      0.463359339202403      1.467612872209937
H      -3.094582979868917      0.003986150905874     -0.027595333517182
O       1.069870863647211     -2.159947855825850      0.670923183897253
H       1.634803953929298     -2.058006962179519      1.489738582938403
H       1.605085663292830     -2.598902551296019     -0.050785825028776
O       1.055505596706223      2.148664178401939      0.725051867539370
H       1.677140079436104      2.066306638186976      1.504017723948297
H       1.484808493301296      2.704670299995651      0.013324240054390
O       2.415415135229102     -0.154267384240673     -0.633092498414724
H       2.643955231942723      0.432076990393128     -1.410247372638277
H       3.079122559926783     -0.008940565626746      0.100646263129687
O      -1.067920866942795      2.142020730056095     -0.726547023483996
H      -1.699065016426544      2.049818693841809     -1.496713140039622
H      -1.495960610450056      2.691087885451335     -0.008697988627490
O      -1.114660594685623     -2.133459191258210     -0.682324958838589
H      -1.683100005593724     -2.011758054794557     -1.495999014901523
H      -1.653967727409272     -2.567776674100354      0.039143086670747
