21

U       0.000000000000000     -0.000000000000000     -0.000000000000000
O       0.018601980517226      0.002942966653186      1.786651386621999
O       0.019795116678840      0.000553271073653     -1.789138313985674
O      -3.860438094219854      0.001510447552518      1.579775432874035
H      -3.774083665806515      0.001433444752202      2.576039909187415
H      -4.828509937242267      0.001042780445164      1.329102961240903
O       0.678878920632981     -2.401473713829299     -0.278051885858508
H       0.867534528303442     -3.024317369753613      0.481207517750907
H       0.866337318623491     -2.865132430654268     -1.144007972121002
O       0.673937119838984      2.403614306586268     -0.269095184665519
H       0.846596714623991      3.038208909503733      0.484216407092302
H       0.877421800334239      2.854587544566071     -1.138127476027443
O       2.475716540428112     -0.006401510059689      0.228730915962558
H       3.134297238945614     -0.098937241365652     -0.518067987338638
H       2.965662062851028      0.099296782519933      1.094052391486821
O      -2.018407827376441      1.374368175145626      0.170529026360607
H      -2.279786290841945      2.083947326282017     -0.483824644912789
H      -2.822794525685766      1.088660654870612      0.691425611530183
O      -2.018157737093520     -1.374658935405566      0.172386785174833
H      -2.280261663088539     -2.085709583926919     -0.480076629290193
H      -2.821902504913245     -1.088006612042980      0.693754979173323
21

U       0.000000000000000     -0.000000000000000     -0.000000000000000
O       0.028607009476806     -0.000778313190209      1.786628417346868
O       0.012039406418003     -0.000228411359132     -1.786675430257480
O      -3.901329015521489      0.009031711508509      1.477891735681815
H      -3.824251583926375      0.006340272893494      2.474913212730771
H      -4.866909966031411      0.024532008570404      1.218251275037965
O       0.658523028272079     -2.411423737600008     -0.096404706375315
H       0.827695525101939     -2.978582988193600      0.709641849837455
H       0.886944321413198     -2.928187796450811     -0.921497804346558
O       0.667592788557076      2.408028193503242     -0.097597461411935
H       0.834172758173066      2.974799869945177      0.709261250201154
H       0.898723394804861      2.925167150730455     -0.921700574968414
O       2.490748104504947     -0.003315202401521     -0.094917509997773
H       3.033833839209268     -0.020364030666647     -0.934421662587535
H       3.101361396095484      0.018255104540148      0.696717589016547
O      -2.012397551156832      1.367931550474231      0.147006889431469
H      -2.226668716895623      2.177458469718621     -0.399577079004880
H      -2.829683312059959      1.074811410428655      0.643116321436808
O      -2.038937694620554     -1.385571027935673      0.153642975262485
H      -2.250155596000552     -2.205023677315340     -0.379165014130761
H      -2.856816097854364     -1.088307919384376      0.646298597191366
21

U       0.000000000000000     -0.000000000000000     -0.000000000000000
O       0.002133061055191     -0.001114745790644      1.788954728681849
O       0.003975905406194     -0.000561834226226     -1.787868120713921
O      -3.702935766726096      0.024815990604065      1.558803323194501
H      -3.574018317354869      0.022209394851470      2.550455226286609
H      -4.680724113004768      0.040827898711745      1.349821102227329
O       0.720936031436119     -2.389731623418716      0.133952882837860
H       0.539518123058763     -2.938404162263669      0.950069288528507
H       1.229493020862531     -2.937945225344249     -0.529998647900174
O       0.734616237223720      2.383252692183956      0.138135289441981
H       0.548373030750101      2.942186847625254      0.946161327341471
H       1.258391272839950      2.918934237988433     -0.524212801481321
O       2.488125134397174      0.019181772131045     -0.234631064174234
H       3.019515200495273     -0.079006513297658     -1.076048712109450
H       3.109547074528063      0.093253718120075      0.545335678156079
O      -1.972101807444870      1.421365552438794      0.120487094995437
H      -2.272201183502185      2.067142248430324     -0.581590410273228
H      -2.756939385521963      1.141675688669109      0.673482172860130
O      -1.997549936743582     -1.471933487919917      0.151587086621146
H      -2.302279800943932     -2.119469969346953     -0.546865642692393
H      -2.782918844304143     -1.171153464436864      0.692629651037907
21

U       0.000000000000000     -0.000000000000000     -0.000000000000000
O       0.002076821787323     -0.001611957303108      1.788419759758898
O       0.006109795759489      0.001177060422795     -1.785932516633943
O      -3.384291995388793      0.031544842619429      1.871717891234850
H      -3.100687708258407      0.069348356289697      2.829913853799631
H      -4.382891372671280      0.037655135818388      1.819163652509013
O       0.776324722492267     -2.363023150052658      0.185792392393527
H       0.528514435662018     -2.936011782629292      0.966992807574593
H       1.312159643886177     -2.900635102003395     -0.465248563410715
O       0.786962680394613      2.357323326219540      0.189500276005809
H       0.565712284184278      2.919548685116096      0.986338344869495
H       1.330588677017872      2.893537123672707     -0.456212925978031
O       2.476830847772527     -0.012176727131035     -0.352008630284218
H       2.933705933152508      0.036705291057743     -1.240195381286972
H       3.162485804331719     -0.090879097018828      0.371650970301484
O      -1.953308306943354      1.426744166440592      0.156278612610796
H      -2.400460180173537      2.005028781307529     -0.526101125126879
H      -2.622180714766086      1.144759328122380      0.844097086491858
O      -1.990004364920413     -1.508172553622613      0.214323217270406
H      -2.457056592741408     -2.081686169244675     -0.458688186186888
H      -2.649104831183317     -1.189697865412605      0.895616434865855
21

U       0.000000000000000     -0.000000000000000     -0.000000000000000
O       0.000857602191906     -0.001273386408214      1.788672887793314
O       0.005452275967460     -0.002007008219085     -1.785368550952174
O      -3.126412040661791      0.038951463669976      2.024434868851781
H      -2.737438468111328      0.053823818051297      2.945563726793213
H      -4.124409907604156      0.061215325456902      2.083634345511815
O       0.790222378762524     -2.361074698519903      0.173267154555701
H       0.522912243110147     -2.940909499268114      0.942901415239820
H       1.329549292821043     -2.896999386857827     -0.476279770771496
O       0.806225868563990      2.351959636321892      0.189309396808206
H       0.560459136702056      2.934834749920380      0.963812666948141
H       1.354154910830611      2.876734630568131     -0.462138966498237
O       2.476207568900835      0.020262678861427     -0.352207256919599
H       2.927781512302125     -0.116192395005312     -1.233944738518874
H       3.166830823704010      0.141805598577981      0.360721097539561
O      -1.934908629421139      1.433897507641620      0.164403761778888
H      -2.437656843943677      1.986711886998026     -0.500156615290940
H      -2.541194179041257      1.189138278474479      0.921048164427410
O      -1.985676906982056     -1.557971445557480      0.216158917257031
H      -2.497129623407336     -2.105897115026980     -0.445802999772644
H      -2.599470818132223     -1.259819595840033      0.947159949503255
21

U       0.000000000000000     -0.000000000000000     -0.000000000000000
O       0.001225983738158     -0.004472253311705      1.791473874795166
O       0.005496325594634      0.004439633687698     -1.784750917659136
O      -2.847322672283708      0.016965640717755      2.134646419093537
H      -2.193933702021988     -0.024067772275497      2.890555879649797
H      -3.776413526405491      0.075033155484097      2.499911184046468
O       0.800306107260306     -2.355197871509862      0.193693770710409
H       0.515727092145835     -2.949919179345559      0.945572318191767
H       1.343956646685101     -2.881459035600063     -0.460135930476036
O       0.823456999929113      2.342379713197760      0.202797943457747
H       0.601995354448297      2.901982109999700      1.001421695342484
H       1.372592409257779      2.878722074097233     -0.438128865254620
O       2.471301209495843     -0.047572275247211     -0.392400244038130
H       2.902195208817518      0.088956810416062     -1.284414913265337
H       3.177561404042083     -0.197377642525722      0.299520914428684
O      -1.924914302211491      1.435933177756672      0.160489162168501
H      -2.454676453732231      1.980059948344407     -0.490109116607179
H      -2.497601729581634      1.206919025475339      0.947624238624271
O      -1.995464143617085     -1.556998129890881      0.189179959329097
H      -2.530658299779447     -2.085190019233924     -0.470047272543103
H      -2.588709975490629     -1.257330058189956      0.936346895005265
21

U       0.000000000000000     -0.000000000000000     -0.000000000000000
O       0.003403238584377     -0.012092727658579      1.791975102314454
O       0.007787483950873     -0.001827655495465     -1.784236922844390
O      -2.816302290620305     -0.135828589288843      1.958897277418261
H      -2.172057241918272     -0.192163628094618      2.721638833009450
H      -3.752107348439308     -0.154495602556938      2.310920623769070
O       0.869298862892155     -2.317287807070085      0.223661436858047
H       1.022577075209504     -2.765695977189810      1.104249821177689
H       1.047603368031714     -2.965961583170478     -0.516223578294034
O       0.778700736791122      2.362538128976032      0.197984999736514
H       0.473281834332391      2.966551242696083      0.934115051069234
H       1.346402312663365      2.879017628515525     -0.443079620491126
O       2.470374874093160      0.137912800284047     -0.360336289062075
H       2.909563367704894     -0.058775293930764     -1.236936118330369
H       3.170909477685400      0.307083730399206      0.332940326419678
O      -1.913265713074658      1.463144576216047      0.160740168041353
H      -2.442872914975958      1.995012548478994     -0.500041695946435
H      -2.515757009716996      1.146913136273660      0.893544312313340
O      -2.021535097886774     -1.599470932330722     -0.143523908305137
H      -2.534061104632216     -2.050294042279312     -0.874328681104175
H      -2.629683212223148     -1.423512166664273      0.630552563249355
21

U       0.000000000000000     -0.000000000000000     -0.000000000000000
O       0.012238380965455      0.000896519130839      1.789112254293901
O       0.011521434233830      0.004224582090863     -1.785376718958861
O      -2.720075723109171     -0.016690472525593      1.987565946546446
H      -2.169703824648372      0.094476817031216      2.815051660693373
H      -3.665966462432556     -0.219234696485669      2.241074420966281
O       0.700608802000450     -2.370773554152604      0.313026303356396
H       1.261614960658848     -2.709239557124967      1.068481698981618
H       0.457192051334266     -3.131734052278556     -0.288378224218031
O       0.842150978599065      2.329468068254466      0.200992487526836
H       0.596609465141707      2.911708208494867      0.976044604653103
H       1.375504463223715      2.859473655910184     -0.458270841873836
O       2.469096625561009     -0.037428575161014     -0.338250191988470
H       2.874469905382611     -0.245157592596782     -1.228486766906534
H       3.195526014016691      0.143500345663473      0.324746843598561
O      -1.907329228559308      1.411589201980841      0.101938725649894
H      -2.455079498864690      1.955444852002667     -0.533821192337799
H      -2.479349262376870      1.117798041117392      0.867758439884166
O      -1.936454226665643     -1.770542221461462     -0.584597351952978
H      -2.339614832251989     -1.866945145851459     -1.494634715071828
H      -2.587430635693148     -2.090150317896847      0.103937599652679
21

U       0.000000000000000     -0.000000000000000     -0.000000000000000
O       0.007606504908412     -0.005960886844587      1.786829367267111
O       0.021489188172958      0.005856057537691     -1.785166981625931
O      -2.753640706914496      0.087814593411064      1.448803747085534
H      -2.658663991057464      0.133313192454445      2.443242936241967
H      -3.667969624236416     -0.243621418399851      1.216096203108547
O       0.749062997043096     -2.329540021452981      0.487890665974998
H       1.011083308419203     -2.609356318150501      1.411496748961058
H       0.956709416521360     -3.066617328640266     -0.155226747649760
O       1.095425145382275      2.215332361430217      0.372146981565025
H       0.866221789026106      2.779715259294814      1.165202948085061
H       1.633303359986929      2.754175749734837     -0.276185363096343
O       2.462034420805715     -0.083604818512118     -0.467607402710489
H       2.832214217656357     -0.279886018499490     -1.375594521856534
H       3.214420279872749      0.065686862045471      0.173974636620610
O      -1.685367438010156      1.737640695759376     -0.230526623819231
H      -1.993403116378410      2.341366013395592     -0.965801920356018
H      -2.441922768734651      1.568970177989936      0.401275788322207
O      -1.818024973367413     -1.690267006508054     -0.781015062809004
H      -2.016848246186772     -1.843567423161827     -1.748986285748601
H      -2.360271714753667     -2.320594255490539     -0.225446857593693
21

U       0.000000000000000     -0.000000000000000     -0.000000000000000
O       0.010751265582862     -0.006707799414003      1.787842045232964
O       0.020385940912071      0.007631568970459     -1.786211077116763
O      -2.622357159590354      0.049075167429462      1.277251715424861
H      -2.546289814055325      0.067393661862049      2.274186112316140
H      -3.526963026259877     -0.289372279976122      1.018134847329158
O       0.874292691640235     -2.277974376206587      0.539353860537307
H       1.138055148621444     -2.529833124329315      1.470480348873499
H       1.104072915448094     -3.024100112542996     -0.085544078588165
O       1.155373435230033      2.166137267771907      0.473377386218369
H       0.981194192482882      2.678811143052766      1.314107479054671
H       1.701113058055338      2.725108589151417     -0.150897654091380
O       2.444229315248073     -0.047644811778407     -0.595979684244250
H       2.743886757616223     -0.258637359869815     -1.526403008265780
H       3.243203732681568      0.050886721484695     -0.002741606201690
O      -1.611619363576745      1.818459131544527     -0.336712753335448
H      -1.812730432269212      2.426642049935134     -1.104611103266777
H      -2.425391527291906      1.725683318247113      0.237018467733573
O      -1.666296746985195     -1.800670889652470     -0.787963489348227
H      -1.858878130446749     -1.955736024786077     -1.756915095265690
H      -2.190213165850778     -2.449399525073897     -0.236000860516060
21

U       0.000000000000000     -0.000000000000000     -0.000000000000000
O       0.004530483052733      0.003633822560241      1.788682639937342
O       0.017173824744265     -0.003290444732590     -1.788337725226694
O      -2.487918302954312     -0.005895068079275      0.930061268746899
H      -2.570745026252851     -0.014196135576994      1.926590659274859
H      -3.389625434170346     -0.141386098617153      0.519492845511584
O       1.126711582528431     -2.151360854294857      0.680160151681820
H       1.382380045458862     -2.351249414927905      1.626034456434222
H       1.376334597497178     -2.924358146776972      0.096924747909694
O       1.098736608491759      2.167848399344291      0.702280648321689
H       1.281007797836694      2.398520359044912      1.658087982747754
H       1.334086649156152      2.946564577552567      0.120721131027057
O       2.428436073322499      0.048602259123943     -0.661042233248308
H       2.703752346811953     -0.128830976657859     -1.605879995190474
H       3.242196849268993      0.195496524903794     -0.098711837295930
O      -1.338203914092448      2.015072750715850     -0.752631889014433
H      -1.557751672738768      2.197083089249253     -1.711105163728096
H      -1.923798571701089      2.573162027289156     -0.164741375097001
O      -1.288284094981019     -1.994424514356480     -0.736360243478695
H      -1.501281776032762     -2.172447173735198     -1.697057865321442
H      -1.823127277895776     -2.609342426271422     -0.156861553837571
21

U       0.000000000000000     -0.000000000000000     -0.000000000000000
O       0.005432256961574      0.001685734719617      1.790850192713182
O       0.005560405344491      0.004196087337975     -1.789790520582694
O      -2.417709732603167     -0.039449594404240      0.794102467732433
H      -2.586728150206189     -0.068422160169050      1.779289437268659
H      -3.282088302735468     -0.152524006367695      0.304139341716649
O       1.190957269644414     -2.101463987774083      0.749581125360073
H       1.338458155335196     -2.311965112299648      1.715983094156654
H       1.442870479403574     -2.893610961939177      0.193664849226764
O       1.119952869415469      2.146911371874224      0.701542114632759
H       1.364134416013652      2.340117293839622      1.651829883689280
H       1.376163867791834      2.924182504909628      0.126907004270674
O       2.418287895182921     -0.030838455117163     -0.709800929066518
H       2.687038945818086      0.165299035376566     -1.652829538179369
H       3.236781913157235     -0.157008666270003     -0.149311303508728
O      -1.278866359349647      2.061825954499013     -0.755242067533975
H      -1.490465725792648      2.239502855429063     -1.716312630498430
H      -1.831211785545468      2.661291866464151     -0.175970843881045
O      -1.211972545925385     -2.099402317263562     -0.775518469109078
H      -1.374459031313813     -2.282332301558651     -1.745123936766885
H      -1.745403685613331     -2.738746439594397     -0.221722195690565
21

U       0.000000000000000     -0.000000000000000     -0.000000000000000
O       0.017407158352614      0.000711414597135      1.788514908366010
O       0.010712290656007      0.008566446438766     -1.790865626986384
O      -2.357649229651847     -0.040478490598815      0.773685490267503
H      -2.576682661780332     -0.123223973598809      1.745887907798500
H      -3.177800715508836     -0.220798229497416      0.230697155208531
O       1.080943466010765     -2.163549564555029      0.695554644856835
H       1.197208977085644     -2.398233877766884      1.660648217556798
H       1.326538424121293     -2.950310456179964      0.129259301453567
O       1.114183150645429      2.148854918472355      0.676022882843289
H       1.368179059777976      2.355192309496293      1.620962541874153
H       1.383872334574000      2.908938474247089      0.084803183989487
O       2.422822462801341     -0.064471189062969     -0.674800371853030
H       2.709838685885730      0.110743597702783     -1.616565452000412
H       3.229798345532174     -0.202969449323585     -0.100685264408908
O      -1.296860911130123      2.045894055663886     -0.761876013354136
H      -1.497650092091862      2.232111059003192     -1.723648820453631
H      -1.845527181083618      2.649880937212204     -0.183805800375768
O      -1.368493967032780     -2.059349210208846     -0.958434741675506
H      -1.354420890930246     -2.095930785650433     -1.957666314869240
H      -1.880046178800256     -2.841824243706759     -0.603403536584682
21

U       0.000000000000000     -0.000000000000000     -0.000000000000000
O       0.036907000018648      0.010277127317143      1.789361554088956
O       0.027395921840538      0.021565938728457     -1.789616831159268
O      -2.329593734318184     -0.435156160731622      0.894460743605861
H      -2.477015291631888     -0.532246351207147      1.878757639543580
H      -3.183741910302247     -0.622607510891195      0.409390764338486
O       0.576988636022510     -2.358644376310703      0.389396661424522
H       0.834348189532772     -2.812287600094488      1.242610518398290
H       0.329049485192500     -3.046870969612443     -0.292417340894275
O       1.059124162961509      2.205402749946343      0.539855709541176
H       1.254975246571098      2.495758906430213      1.476517684557171
H       1.306158957152689      2.937744761456658     -0.094690576111768
O       2.449320910637424     -0.139374404364225     -0.425449515352054
H       2.809766211903351     -0.344072880779273     -1.335492216849447
H       3.208596683931896     -0.000851500998931      0.210405582395326
O      -1.605287333275280      1.849827228979199     -0.634847765531730
H      -1.801900539919157      2.095233583124648     -1.584120628473808
H      -2.161864330231613      2.411956249026390     -0.023101894045983
O      -1.506094020450117     -2.038721759097120     -1.353640883254482
H      -1.464926408578632     -1.956474323028053     -2.349402193505520
H      -2.167463740764326     -2.746255967110424     -1.104672135130364
21

U       0.000000000000000     -0.000000000000000     -0.000000000000000
O       0.451963200886328      0.448710886635289      1.671621142038789
O      -0.061670672035957     -0.082610168503140     -1.786348486085415
O      -2.066941663326033     -0.552670388953720      1.489820885654792
H      -1.982004232841323     -0.572671727939230      2.486006400175779
H      -2.989521698759461     -0.836201998990521      1.228180093098288
O       0.409586933762487     -2.372904122065159      0.332500854093824
H       0.990934804496792     -2.961818450068822      0.893940581459713
H      -0.187783810451519     -2.938557614433335     -0.235992171834279
O       0.940329571326488      2.238918908347595     -0.453310203733782
H       1.268136992152827      2.876358607326097      0.243979495758030
H       1.164292293264052      2.593752992577507     -1.361018015670551
O       2.433303133817223     -0.350081237241138     -0.247861499340337
H       2.899682918274477     -0.588954900595297     -1.099582856126328
H       3.111467686815312     -0.124737844023791      0.451647753057509
O      -1.940361560783732      1.512549497226261     -0.438787719726214
H      -2.159243646258994      1.829350710605298     -1.361678625445612
H      -2.475995839687195      2.031332605371157      0.227515519022548
O      -1.694555916973176     -2.334109064017874     -1.183670328873897
H      -1.630140705940559     -2.256043899269184     -2.178535400449126
H      -2.498977431306642     -2.877379454837500     -0.943330341072983
21

U       0.000000000000000     -0.000000000000000     -0.000000000000000
O       0.438559816025341      0.448377496475315      1.675170000428847
O      -0.068535660508113     -0.095379665302363     -1.783846581738231
O      -2.064075515349416     -0.643191449586609      1.431511514044034
H      -2.022289293900232     -0.660660211241533      2.430485364584299
H      -2.976757359098555     -0.920327861603705      1.131166277316423
O       0.403028504477274     -2.391340754207198      0.206907792249405
H       0.919455856997063     -3.013175048210122      0.795656380673435
H      -0.220736683936308     -2.919141922440246     -0.369584112754645
O       0.985558796203019      2.208975327161264     -0.475118892611603
H       1.331659287243641      2.853984798120105      0.206186642720994
H       1.255810527118722      2.512340370234596     -1.388865932321272
O       2.447604436314950     -0.375440062420717     -0.091604902092061
H       2.982010783264962     -0.800764070834568     -0.822022141898404
H       3.045007760549080     -0.174249006512997      0.684688487817159
O      -1.924264309133479      1.529772354348631     -0.425475381471871
H      -2.138107198027974      1.854264947001915     -1.346874196417064
H      -2.461070625508261      2.045278657810826      0.242425980849604
O      -1.686846202362689     -2.477556629142761     -1.315144870762648
H      -1.601076573999229     -2.413517715955216     -2.309399661270671
H      -2.447184810803487     -3.084786720872831     -1.084587250607075
21

U       0.000000000000000     -0.000000000000000     -0.000000000000000
O       0.000477067087969      0.010338828638106      1.785534492897439
O      -0.001025189380818      0.001374724729154     -1.792478098693715
O      -2.432138125843931     -0.858078767817837      0.239325321686714
H      -3.005833783837060     -1.075686716715322      1.028958193707921
H      -2.674435272734967     -1.457044384352004     -0.523912703321415
O       0.285571766240158     -2.407439478018766     -0.183345350846334
H       0.386898993817221     -3.096689959398463      0.534057302389213
H      -0.353835039998967     -2.739574823944250     -0.876775266643196
O       1.435522809602607      2.020059336433052      0.257582994364436
H       1.573470919345654      2.500627590010367      1.123622527337365
H       1.722612846561413      2.607527306124183     -0.499028329411498
O       2.412825216643626     -0.625336537413800     -0.078150856786087
H       2.779044688794347     -1.332033669157871     -0.683512287835632
H       3.147277315697334     -0.266482401450637      0.497873294875746
O      -1.505755994877893      1.952447574275730     -0.293411144495692
H      -1.792336546075878      2.229013859657377     -1.210680285732471
H      -2.059918102078272      2.431273058201247      0.387493044716513
O      -1.649969574105212     -2.334504004487066     -1.917612177181863
H      -1.373736233506225     -1.854257713706555     -2.750113613656951
H      -2.181020572065959     -3.145975540089943     -2.161535903931029
21

U       0.000000000000000     -0.000000000000000     -0.000000000000000
O       0.431196689185477      0.425169620852804      1.678861254557937
O      -0.083816414269561     -0.098655888942185     -1.785019525380697
O      -2.407606453009573     -0.883233937921525      0.163328841948277
H      -3.056232992337426     -0.901723429173275      0.924211060949895
H      -2.543789567994836     -1.690824878698603     -0.410475159055293
O       0.222805139816098     -2.392503664785431      0.283516336093050
H       0.693114768048859     -2.999401533899438      0.924206456241972
H      -0.329726593390323     -2.937332517062148     -0.347253198306596
O       1.232853419425765      2.071688398981292     -0.575601097610023
H       1.738342427777813      2.647473792692189      0.067012349825099
H       1.407016858907747      2.382642342326216     -1.509932270945285
O       2.420910414958868     -0.594993872608239     -0.075809513863420
H       2.942310911016336     -0.830592965403990     -0.895952544184866
H       3.047318700394805     -0.475045693897796      0.694401557441880
O      -1.629585039427057      1.869312018087771      0.207710268873667
H      -2.305739751684875      2.112328840616681     -0.487816602684506
H      -1.710430859148349      2.494489774466557      0.983994190105312
O      -1.614064649575887     -2.814437493155474     -1.536693913140960
H      -1.354026684633570     -2.443826576615084     -2.428337230465634
H      -2.102201447916941     -3.677856456303703     -1.664091559043003
21

U       0.000000000000000     -0.000000000000000     -0.000000000000000
O       0.496852588986911      0.506135407575062      1.639563603364196
O      -0.500911701236658     -0.510619837678471     -1.643574236580100
O      -2.216493480923816     -0.986768298700629      0.598949757476427
H      -2.801701712787468     -0.932601435531858      1.408021618495876
H      -2.426499058343688     -1.822154032990355      0.090984864597242
O       0.352437784102683     -2.345849012621163      0.348089530132769
H       0.851918037492070     -2.903798144282109      1.010820427973567
H      -0.301385132859947     -2.919619939239366     -0.145167519509877
O       0.922130381957638      1.944029099317044     -1.253543786931991
H       1.514623160559161      2.686606604687488     -0.941244321958296
H       0.792829416390376      2.014292449622492     -2.242656683373660
O       2.468748182247675     -0.378057203983336     -0.159186669153745
H       3.001387166518026     -0.625485184302094     -0.968553771889475
H       3.088211580341718     -0.192451502630846      0.603581724296869
O      -1.678714107676078      1.824696776562621      0.284589930950075
H      -2.464393078806948      2.009739266067717     -0.305721708271526
H      -1.641849201153408      2.507522667233688      1.014240382670856
O      -1.735882715479398     -3.096012385402071     -1.011635342561269
H      -1.645026662404192     -2.769346019444519     -1.952397939060345
H      -2.199427994733958     -3.982083625847729     -1.009756264088852
21

U       0.000000000000000     -0.000000000000000     -0.000000000000000
O       0.525020097323190      0.514206714799770      1.629939398108528
O      -0.502981110840915     -0.502372904954622     -1.643716930134228
O      -2.233631544963654     -0.896814324136843      0.657030004778443
H      -2.740252665496973     -0.791203280443139      1.512705964286183
H      -2.480703396101021     -1.765881792058984      0.228454181177817
O       0.232375763840261     -2.378016818320481      0.441533057919543
H       0.759329286977934     -2.895775396909018      1.115510831107036
H      -0.474461171231444     -2.965839595120716      0.048028381589898
O       1.053479035906654      1.968624870952349     -1.093305232029669
H       1.641359341698341      2.641259588901395     -0.643906431105724
H       1.082164910239365      2.109195351944887     -2.082960252977522
O       2.399582116386540     -0.645192702922172     -0.298745493993241
H       2.726161310885364     -1.209036003601957     -1.057314384733578
H       3.161242794241588     -0.439546235880481      0.315731960762146
O      -1.678524993090362      1.839216034905008      0.236865250314504
H      -2.474204583627420      1.987772408120138     -0.350352761313160
H      -1.575209153348606      2.614042974826458      0.860539083684493
O      -1.984675015266440     -3.241312309067797     -0.652856381708972
H      -1.991907572205624     -3.191244122570155     -1.651575995424933
H      -2.451044345601025     -4.075144585410193     -0.357520331330884
21

U       0.000000000000000     -0.000000000000000     -0.000000000000000
O       0.006330349448702      0.007339727769799      1.786690348472347
O       0.004908967080131      0.010961064253831     -1.787813631969681
O      -2.309195057118520     -0.949147435713043     -0.147938378152271
H      -3.058073191141721     -0.837241684419911      0.505252744880987
H      -2.443290045394839     -1.793045042792245     -0.667414424650250
O       0.165589261742001     -2.409354677665028     -0.087002206883783
H       0.684083905727513     -3.011600470102310      0.520009580192817
H      -0.476649322974152     -2.953210470024254     -0.627141519856937
O       1.360118987596452      2.091194205605120     -0.171003035395518
H       1.619131668213995      2.720122265094728      0.562046708664154
H       1.568031479510599      2.507330960898046     -1.056216341102299
O       2.425777602302153     -0.651978494063259      0.036261901657507
H       2.957323266278655     -0.870527635878944     -0.782087339021195
H       3.047179573634272     -0.452459541548831      0.793923948755091
O      -1.656390325250413      1.849629717278480      0.256727536937655
H      -2.236713796414891      2.226837365599376     -0.465033544628698
H      -1.858915718143815      2.309094942255611      1.121525300735694
O      -1.917636823716958     -3.220540662472057     -1.487612711277057
H      -1.844171029844830     -3.159366866476743     -2.483032493988985
H      -2.430965516157933     -4.042580656499823     -1.241149931661825
21

U       0.000000000000000     -0.000000000000000     -0.000000000000000
O       0.013673861845566      0.017071466556105      1.787450836722833
O       0.000628916312391      0.008529626719904     -1.786057823717484
O      -2.262146814889879     -1.015632790175408     -0.079323169129719
H      -3.047072117642750     -0.744154971474856      0.477625718158787
H      -2.431763403955472     -1.917152941486338     -0.477433241212894
O       0.195745678486941     -2.425913684172581     -0.164005492693327
H       0.786708086229272     -2.992648994101132      0.410080320679183
H      -0.497028808332375     -3.000963275068355     -0.599185315781251
O       1.303486531149561      2.115741499242091     -0.217018350394664
H       1.583191356878463      2.757877310781484      0.496723066368164
H       1.514153183291116      2.502694587936523     -1.114730369265587
O       2.416689741671902     -0.649787057852445      0.172141594462740
H       2.992654347098992     -0.891107347211683     -0.608902124696943
H       2.994142012682321     -0.461245853293323      0.966497364183276
O      -1.699661060198803      1.806455563625492      0.300762333627845
H      -2.236017780368047      2.286336619365855     -0.393525532513286
H      -1.894269091340907      2.196460045118775      1.200775788321802
O      -2.071080056986591     -3.498155853098230     -1.027207096789956
H      -2.273817671904895     -3.734515126229155     -1.977486925841514
H      -2.444055535996736     -4.201397372236189     -0.421946278780326
21

U       0.000000000000000     -0.000000000000000     -0.000000000000000
O       0.019206731383451      0.014133877252497      1.786854257467353
O       0.004377994611214      0.015648027990376     -1.782779245714801
O      -2.228210581997077     -1.044572604948015     -0.037863888121618
H      -2.988430753589218     -0.769234115528838      0.550569631444342
H      -2.398882199872644     -1.962835527348988     -0.395165447305679
O       0.161979174061032     -2.448716025801530     -0.156042654778399
H       0.933148398945611     -2.999996526650095      0.162371911432181
H      -0.566201567304093     -3.051306871358942     -0.482595990016826
O       1.351410667517352      2.087932523240648     -0.176844769679376
H       1.624412225006093      2.703115030499465      0.562763662108335
H       1.561672047265040      2.511892348933119     -1.057780759627232
O       2.396522747529537     -0.743149117383663      0.128443157059487
H       2.972083044408369     -0.919878842236480     -0.669990903467866
H       2.975626273289175     -0.575609193587249      0.926296201414804
O      -1.704352237582853      1.798379613935584      0.292805042307553
H      -2.244842870762039      2.276588903901223     -0.399427397293570
H      -1.891933521866933      2.192012059552863      1.192731016787508
O      -2.156556747631391     -3.598373242944255     -0.870813072633967
H      -2.366996537748011     -3.858406516705329     -1.813202477961070
H      -2.534473181668613     -4.280269017644510     -0.244556478792011
