21

U       0.000000000000000     -0.000000000000000     -0.000000000000000
O      -0.031536930762254      0.028539364303915      1.803581253216954
O       0.018330678320093     -0.005784773116939     -1.802495347658674
O      -2.425723390486979      0.175426480141921      0.596963725730440
H      -2.673757564242021     -0.378701590650496      1.391583842395962
H      -3.073044034204468      0.002275604981084     -0.145326486146433
O       1.273908829968287     -1.994090339139718      0.744414287823073
H       1.187466143932515     -2.351025552123224      1.674535202416084
H       1.531762520116677     -2.735882910262406      0.125338156879510
O       1.091327836086479      2.116105423873159      0.680102861030459
H       1.571079365311672      2.185718621704470      1.554741342286451
H       1.465830925428289      2.787097794660325      0.040167962451815
O       2.394459585555991     -0.149647950023843     -0.740260014854142
H       2.648500192072494      0.399922087112515     -1.536147032289826
H       3.112254677702186     -0.084143087178277     -0.047093859712087
O      -1.069634383289234      2.170524382427709     -0.764172249023531
H      -1.647427693872659      2.055771377939587     -1.572248135438906
H      -1.581519573120642      2.654431501359435     -0.054378298162819
O      -1.010957144822136     -2.176023863296560     -0.739912133041445
H      -1.621398905989858     -2.086227989915781     -1.526866742498835
H      -1.470250087678399     -2.695464924616843     -0.019335297126710
21

U       0.000000000000000     -0.000000000000000     -0.000000000000000
O       0.029079516552096      0.067314121990096      1.796997119685629
O       0.079598044744581      0.016003122291475     -1.795018063081405
O      -2.410091312605699      0.116428135641803      0.745582594845797
H      -2.573656178309959     -0.507616180706588      1.509660618309643
H      -3.081088825258650     -0.056388008350800      0.024543817532759
O       1.326313593194705     -2.006054315625123      0.730303174511417
H       1.034628705135069     -2.402195937804136      1.600930385925705
H       1.496290317018660     -2.738550403686795      0.071093500483174
O       1.032647355128017      2.208778644090631      0.643136143844743
H       1.721077966353652      2.109865174420073      1.361662009103072
H       1.413632650371134      2.741638517406055     -0.112450092278431
O       2.442919458751396     -0.130765906985141     -0.636042730138764
H       2.695091805238969      0.573723830032396     -1.299445562589691
H       3.050367989643220     -0.075162039712493      0.156367827755116
O      -1.166475050172428      2.121129633786595     -0.692759678175774
H      -1.715700263199093      2.005127966901083     -1.520343679142199
H      -1.715619490471799      2.571306921200202      0.011357352995335
O      -0.965527741622066     -2.202461662850935     -0.771323998701737
H      -1.628234606049186     -2.053461759472881     -1.505230423686902
H      -1.397521789884902     -2.718793214174827     -0.031876318758830
21

U       0.000000000000000     -0.000000000000000     -0.000000000000000
O      -0.071391457413187      0.009779516033847      1.802063561367649
O       0.094416550283381     -0.060370932258595     -1.799727272728015
O      -2.473229348768232      0.263619059465428      0.667946604893518
H      -2.690697047098189     -0.439617092759858      1.344826737846499
H      -3.092896812472760      0.178273641354077     -0.112263875703479
O       1.155460810345458     -2.095146435806946      0.684258843890727
H       1.611597348588063     -2.142235071528306      1.572921951522610
H       1.586760281537912     -2.740318967144113      0.053597943757303
O       1.022640729242775      2.114705329842932      0.765087310547415
H       1.285562533341776      2.198285726759333      1.726277428151952
H       1.547999129177384      2.766330022091875      0.217927542225931
O       2.436415192924894      0.263739396412055     -0.574659852051187
H       2.772254102059006     -0.325886951574640     -1.309202564812999
H       3.068884973022744      0.225525897401446      0.198981993867415
O      -1.007048509544135      2.134759072069027     -0.854386485658609
H      -1.677611432326121      1.965035429072555     -1.576563231059682
H      -1.397749317528368      2.757365689521060     -0.176364451691123
O      -1.061164916577247     -2.152500190772965     -0.664968695088778
H      -1.792053961015414     -2.020851045365250     -1.334647504096261
H      -1.414513189040645     -2.664935754620104      0.117690101100082
21

U       0.000000000000000     -0.000000000000000     -0.000000000000000
O      -0.056166902340612      0.016779513127093      1.797744355929254
O       0.069096148279052      0.000399958544632     -1.795466077455169
O      -2.501414215551387      0.264356016388480      0.721507856705293
H      -2.691803422122406     -0.388926029005060      1.454293309063411
H      -3.135656504512371      0.109736669435042     -0.036007540129138
O       1.091085290938088     -2.130541260318487      0.717202577906009
H       1.665113160263631     -2.094395582128722      1.535240165786774
H       1.508271265429600     -2.741025548434721      0.043953146676556
O       1.174343295966398      2.048347308788200      0.715517665310791
H       1.252657135554686      2.324250043837127      1.673507552168404
H       1.567486736991431      2.758128288787955      0.131010013342414
O       2.433675271476414      0.181289609880143     -0.663233271367852
H       2.680084073509264     -0.541706068894099     -1.308647828652167
H       3.035653216378330      0.135826346373990      0.133984167931513
O      -1.060325571395129      2.151238988536759     -0.745953876660482
H      -1.645075971600941      2.034643770255262     -1.548744337822692
H      -1.564246547517122      2.641614943010667     -0.034901787782275
O      -1.103683169009930     -2.090984164481384     -0.628903635581246
H      -1.758109524957870     -2.040335004326224     -1.383331105399436
H      -1.482854647722456     -2.655969622478484      0.103913136867887
21

U       0.000000000000000     -0.000000000000000     -0.000000000000000
O      -0.010266053123451      0.047242427580672      1.794620225008655
O       0.022475453508908      0.075923320288413     -1.793241897327727
O      -2.534745643915344      0.248660202708636      0.817836675949765
H      -2.684190807285237     -0.300113925750988      1.640340839512920
H      -3.190777769753653     -0.021508079982063      0.113116200231890
O       1.022329287080203     -2.169256008015549      0.735235690396724
H       1.643882867549101     -2.128304546174070      1.517536223682583
H       1.406398103211624     -2.771665971870113      0.035526193588119
O       1.357748222480458      1.999672961758683      0.626665791484418
H       1.181593614726834      2.468013660160667      1.492475553722931
H       1.628416610902903      2.668950834309820     -0.065292121124593
O       2.431125760141484      0.080632290954881     -0.716935187648253
H       2.615067298620630     -0.662682042307664     -1.360090932696357
H       3.040638869135257     -0.002285228776884      0.071492649814553
O      -1.170894509150865      2.175393133400647     -0.511344873915115
H      -1.563824897389443      2.213549291307043     -1.430121134825519
H      -1.878467356348545      2.387050857883410      0.162852184499818
O      -1.203305207127150     -2.004586665392353     -0.623522569092542
H      -1.708771672576042     -2.082631915553631     -1.482831937849725
H      -1.575041218607405     -2.651962943525959      0.041846721060401
21

U       0.000000000000000     -0.000000000000000     -0.000000000000000
O       0.081535653341323      0.095521282865259      1.788263598647049
O      -0.088996616081285      0.189438554433798     -1.785000368671701
O      -2.583920938167238      0.223787196666565      0.971381348165603
H      -2.679783450223279     -0.050373484710386      1.928275438213834
H      -3.258497245312237     -0.262626159032540      0.416089665141128
O       0.866207719781032     -2.234233673603564      0.709957984403337
H       1.482908741013060     -2.278095276391017      1.495932545195409
H       1.205329088826201     -2.835245826059446     -0.013769236072222
O       1.436713516378543      2.020698441145285      0.440466806455431
H       0.933142373661821      2.669327918329941      1.011164542170350
H       1.693094743467944      2.462324643289940     -0.419320937104235
O       2.408714652394798     -0.044553423597777     -0.729721800373051
H       2.527776801301310     -0.697664493982515     -1.477565456787054
H       3.058962359969039     -0.252374011506232      0.001023382324604
O      -1.257828903074210      2.165416720153086      0.006201607217423
H      -1.345462796514877      2.565346769724574     -0.906144958606210
H      -2.159178462843871      1.882512081083008      0.334125281714504
O      -1.476463053856806     -1.818764073018171     -0.642670840617353
H      -1.593904009456011     -2.057503720316213     -1.606626753901748
H      -1.648296401638666     -2.624808147845343     -0.076308544886003
21

U       0.000000000000000     -0.000000000000000     -0.000000000000000
O       0.051287054388295      0.051365935428672      1.791308737990396
O      -0.103292881354556      0.223753404658938     -1.781411643713194
O      -2.653699763930914      0.301152514274928      1.039251225056528
H      -2.774422143448884      0.134620152400752      2.017869168654605
H      -3.348123245743058     -0.204172383360440      0.526979055465300
O       0.807400291927812     -2.283909444771947      0.643468369556289
H       1.402891337513301     -2.368529622369945      1.442361253596937
H       1.152700203740372     -2.865865740746952     -0.092802531999172
O       1.416879023670637      2.011644892704674      0.508625321095167
H       0.849141123523220      2.676995637946876      0.993374805408299
H       1.738069182009172      2.410503606661293     -0.350297614031925
O       2.405952190737931     -0.048028753873507     -0.701179476510426
H       2.499708186215859     -0.655079719562404     -1.490292230410728
H       3.035043773804305     -0.338846964165996      0.019700921806326
O      -1.237997268818162      2.144658579627595      0.042672019381912
H      -1.373010890201374      2.535851798807026     -0.867679114691653
H      -2.113830922666554      1.818867353396769      0.398727475312009
O      -1.617494360875429     -1.730415027706659     -0.587108655480066
H      -1.636994914605031     -1.972303070751163     -1.557216846887777
H      -1.630977636863064     -2.564286519097203     -0.035314729168121
21

U       0.000000000000000     -0.000000000000000     -0.000000000000000
O       0.041710523931221      0.042072277143250      1.788516007078287
O      -0.082878155822143      0.227294503938888     -1.778563550151045
O      -2.698491151109293      0.287685443615935      1.169020538625249
H      -2.800340795591479      0.120328303462540      2.149641891420776
H      -3.432900583756938     -0.176259131105394      0.673643695378806
O       0.772200324565950     -2.308886762710724      0.640460472407567
H       1.409841879985103     -2.378597396851916      1.407632991656188
H       1.098786204311140     -2.874394074491000     -0.116865840006115
O       1.385577302109329      2.038992322234755      0.509077998895345
H       0.826327711719390      2.699488287515162      1.010062006122112
H       1.707010748886373      2.452593016638116     -0.342752386147410
O       2.415076312040330     -0.039378292027238     -0.659243590208273
H       2.548250149523708     -0.628764838909993     -1.456042327257706
H       3.048720651432863     -0.310291749010046      0.065394767858305
O      -1.322577930823595      2.096834032254655      0.049488961619389
H      -1.531359825683767      2.456883311922251     -0.859782525115701
H      -2.160393185058363      1.750001599185184      0.471120154894557
O      -1.651342211636023     -1.702138168655453     -0.592011442756976
H      -1.740496220943009     -1.965138327029534     -1.552679168518437
H      -1.781378609447551     -2.506787325076190     -0.012675382843907
21

U       0.000000000000000     -0.000000000000000     -0.000000000000000
O       0.049541936147341      0.047917544144588      1.786891466464607
O      -0.058046773567577      0.222475353166909     -1.785067341783887
O      -2.727049984338646      0.170569119320634      1.327305552175349
H      -2.752694236023149      0.009934018052708      2.313986218143921
H      -3.543506810712865     -0.222420842936878      0.904272290797737
O       0.715905107229695     -2.328159495195247      0.650762776704845
H       1.416045580040790     -2.372632908315279      1.363381492328643
H       1.004187033078505     -2.876212130284998     -0.134432638717382
O       1.305453094773404      2.088456986439982      0.443849639144337
H       0.767571479896858      2.746928430523514      0.970251316292452
H       1.607158186090457      2.511659924628296     -0.410476593030555
O       2.409371267447586     -0.046593488843113     -0.591421759057999
H       2.614919581624993     -0.596503108608470     -1.400958231756015
H       3.068036547767600     -0.257507708558913      0.130849132244311
O      -1.442156465408589      1.993267496157572      0.117884969747364
H      -1.731094438086269      2.332008451413155     -0.777530806960556
H      -2.228761624925666      1.602935781320790      0.596313099578472
O      -1.660748481309537     -1.681777134204840     -0.614030886730810
H      -1.883815746563613     -1.924746379839281     -1.558068460584678
H      -2.009007108796103     -2.387477435886741      0.002980468583860
21

U       0.000000000000000     -0.000000000000000     -0.000000000000000
O       0.065285126103790      0.027225813014750      1.787690866597009
O       0.063787437464714      0.069286999284834     -1.786664698821218
O      -2.721558994104157     -0.457224008690594      1.747347960798477
H      -2.290244053104737     -0.623640743001194      2.634068261802160
H      -3.715626666330764     -0.501652952348752      1.846622992903206
O       0.553548886839781     -2.381686245175808      0.543508434172324
H       1.351572917394446     -2.436287198702014      1.143655401615563
H       0.729013611157132     -2.901550366963963     -0.292525910455735
O       0.965555349519087      2.256851429459247      0.188307707145342
H       0.440935675535083      2.914271167815698      0.729208331371505
H       1.199893582776605      2.663380679042558     -0.694766220488679
O       2.406086296173321     -0.073168539095106     -0.313936498932121
H       2.819588762666009     -0.429224720670484     -1.151933936736333
H       3.091596202157670     -0.053806493272022      0.413869299326504
O      -1.780267490148398      1.601925727137306      0.460712370561608
H      -2.287339487258151      1.907998615830976     -0.345015484581703
H      -2.375251609093246      1.040049483660451      1.035420109520953
O      -1.839962869048834     -1.748513758541345     -0.492726120993459
H      -2.328772675269702     -1.521152431080523     -1.334968247770296
H      -2.451062525963021     -1.629508019178034      0.289830486107877
21

U       0.000000000000000     -0.000000000000000     -0.000000000000000
O       0.051970707173484     -0.074689645765044      1.792365008417912
O       0.292003559031677     -0.273818149421808     -1.764710994010197
O      -2.760067548276536     -0.403879188455591      2.018867674282945
H      -2.190135648384784     -0.513513286483113      2.833212806297296
H      -3.723148219343697     -0.378949163216338      2.286923852832140
O       0.732341806305306     -2.359947706754677      0.182059002697331
H       1.291231475485583     -2.672681816937107      0.950069233105732
H       0.929178024223821     -2.919472737585953     -0.623041763162939
O       0.899467330062979      2.306771971749422      0.404427560333607
H       0.150512590602726      2.902795895668683      0.693948337404807
H       1.265686601136608      2.631319922696238     -0.467668806492056
O       2.452545308573781      0.160581472358402     -0.177816723104436
H       2.857063991452018     -0.329178296937873     -0.950150850008923
H       3.052292826151149      0.080944755536727      0.618399898483966
O      -1.737121452140444      1.576354821078793      0.703039921683763
H      -2.260758089955382      1.865453542830771     -0.098350495415943
H      -2.303969872487535      0.984150487170213      1.275732592537775
O      -1.986740152517848     -1.792464793530631     -0.096499919994940
H      -2.440775413040400     -1.531075230702301     -0.948278928098940
H      -2.517303270536159     -1.455185165134634      0.681153749749983
21

U       0.000000000000000     -0.000000000000000     -0.000000000000000
O       0.027203641216296     -0.130472428093788      1.826376406938859
O       0.485987503762371     -0.472086514813641     -1.752042359053635
O      -2.784169128863911     -0.280020171492456      2.151359262152702
H      -2.214848968332355     -0.310219774789422      2.972920299917414
H      -3.746915060242120     -0.219885844110752      2.414995629683921
O       0.932312754892556     -2.261142586127881      0.101666699372550
H       1.144013589608885     -2.842432359010219      0.887341540845032
H       1.078571711389039     -2.776082366620666     -0.742990236969420
O       0.863204888318098      2.321952860105163      0.678507950534911
H       0.014701010866097      2.842726293798881      0.772509018123393
H       1.326025847859776      2.588559154634512     -0.166901916409076
O       2.475142272427373      0.280070576457538     -0.125010711486895
H       2.827689662246598     -0.304565174243442     -0.855703107050140
H       2.976862617050425      0.096313149057820      0.720276165062578
O      -1.708760062594612      1.716866977509413      0.870105161373330
H      -2.196333364915090      1.990857675188621      0.041129062532377
H      -2.287864328306903      1.107151783835379      1.411294252206530
O      -1.921451842722480     -1.851248766621310      0.243737819211325
H      -2.362459386113449     -1.733002621470286     -0.645942008495917
H      -2.477226674079999     -1.415625075855247      0.951795964332808
21

U       0.000000000000000     -0.000000000000000     -0.000000000000000
O      -0.026372917223268     -0.126667358092702      1.813668242169788
O       0.497692233275397     -0.445988906433855     -1.677820159263555
O      -2.846868571129786     -0.106081841938308      2.218915965453817
H      -2.302802993239005     -0.040227514221028      3.055370300414952
H      -3.817662587299350     -0.027767303929014      2.445688563678913
O       1.094848010361676     -2.193029324583692      0.109574582251323
H       0.993314941904269     -2.906179247864821      0.803194235183493
H       1.182484493399005     -2.615514232718771     -0.792548662787259
O       0.860921698505466      2.347739139186644      0.897648682733629
H      -0.064027242830256      2.718297855279443      0.813057348369036
H       1.397162673309942      2.603045930894247      0.093121455693601
O       2.499072286414942      0.365339075192803     -0.150931574548808
H       2.732672710240399     -0.302247377599546     -0.857868042724483
H       2.912149327814080      0.089962367016090      0.717132378430863
O      -1.740829834080559      1.762950560491729      0.844374999081625
H      -2.211448445545448      2.047749376432985      0.009265570933841
H      -2.351279378658353      1.191259962287287      1.392573150710588
O      -1.869925438594858     -1.860283479934702      0.447610112525392
H      -2.337716044409777     -1.914460852899039     -0.434567172021197
H      -2.446188013267448     -1.369200274336958      1.100877844938039
21

U       0.000000000000000     -0.000000000000000     -0.000000000000000
O      -0.075439017539273     -0.118720470516488      1.790550333443398
O       0.518360260084817     -0.467532790325630     -1.651234113836925
O      -2.983890812451345      0.063450491192122      2.192923002960131
H      -2.507562438476802      0.209975023070493      3.059895806284775
H      -3.971051146043754      0.124670275186714      2.340458130402308
O       1.283838579373079     -2.220940050143061     -0.053082993037919
H       0.856141658888276     -2.833058271493306      0.612038520145070
H       1.384099309557408     -2.696225474868612     -0.927183416917440
O       0.922123668642294      2.391734955383733      0.988578509420006
H      -0.043337086932395      2.573932752461291      0.802327355906165
H       1.474725091821809      2.698102726810180      0.213484672693660
O       2.563192907110352      0.456022236125365     -0.221282621869611
H       2.653714548369861     -0.236290939774893     -0.937179471240094
H       2.924084446121279      0.095348351613247      0.638759031831687
O      -1.787589912226390      1.714071376769107      0.701869335027795
H      -2.240247177931539      2.009413495992079     -0.139483404563170
H      -2.443345124234580      1.229391393166637      1.280722006628440
O      -1.879811103095876     -1.828859060193147      0.563676300966799
H      -2.337906052758341     -2.023638259107620     -0.303624154909929
H      -2.502978378251759     -1.328542025400776      1.164796431948421
21

U       0.000000000000000     -0.000000000000000     -0.000000000000000
O      -0.069098724561481     -0.095724320800172      1.792256592311685
O       0.563488104029757     -0.438097440379014     -1.630645662535085
O      -3.130331792550991      0.117617326134405      2.100057817841306
H      -2.783323451518875      0.283125807673806      3.023200360351758
H      -4.129439996656337      0.159253959881143      2.107071177922620
O       1.290117878283815     -2.247526369063749      0.017030976743845
H       0.770155302882410     -2.822561407753596      0.648674566484853
H       1.391488595482664     -2.720750848727592     -0.858059058361958
O       0.942584967441268      2.404124104260542      0.988090997503141
H      -0.031000675801197      2.597165979656181      0.866165489032227
H       1.449765440480818      2.731843067522818      0.190991098565951
O       2.561296596294503      0.429363263478612     -0.223973751893560
H       2.669204626182645     -0.187572317859933     -1.003554630035226
H       2.968602474663964      0.013455783158645      0.589120885439376
O      -1.796907925253561      1.699793863475265      0.640830089825760
H      -2.209473759587546      1.986950485222776     -0.223652707531631
H      -2.488209883239045      1.251296314712453      1.207355951229444
O      -1.846724564201945     -1.811489231760299      0.641575919672126
H      -2.262066604237441     -2.069477810415732     -0.230738750078705
H      -2.507579252699883     -1.294240430113749      1.185381728656823
21

U       0.000000000000000     -0.000000000000000     -0.000000000000000
O      -0.049321668519035     -0.064712613704740      1.796959766758375
O       0.566291479101836     -0.373727822430850     -1.632075515130671
O      -3.267342448758988      0.116133257951206      1.992571130672627
H      -3.048475608693486      0.270081579922870      2.956104845952924
H      -4.259195948722567      0.141857936882775      1.867811860460478
O       1.211322418049666     -2.234149912018562      0.100241464741874
H       0.718218811677422     -2.829657208860048      0.734449547937944
H       1.330785558975438     -2.704501543532297     -0.774114241302592
O       0.949850049680590      2.372998753474895      0.894696124953136
H      -0.005195926750655      2.669353710404246      0.902501405594569
H       1.399166961750399      2.717913991529249      0.070591889382198
O       2.538292957411047      0.367553445426702     -0.193727042101878
H       2.705004173930090     -0.147768601461796     -1.034352141820766
H       3.032864916596723     -0.059990139883427      0.562979677735736
O      -1.805679218704368      1.674048461189859      0.596595281519164
H      -2.185039842831749      1.960627380508473     -0.283153568928429
H      -2.522600702687944      1.242360454434336      1.144015641595616
O      -1.824856083076033     -1.785854129670770      0.661475467855846
H      -2.201005801560024     -2.068570041404016     -0.220898093929214
H      -2.511608438523228     -1.260269334189501      1.163602767498718
21

U       0.000000000000000     -0.000000000000000     -0.000000000000000
O      -0.035244763373030     -0.043571224421179      1.795080844888201
O       0.550253984937022     -0.279384541078823     -1.664014715717404
O      -3.390147755074012      0.101785407834194      1.890120230066856
H      -3.279998186385242      0.233049597289537      2.875329235854110
H      -4.362922997301681      0.115181493049994      1.658757153907775
O       1.132413905228425     -2.226624060270940      0.132151610987967
H       0.698997605093613     -2.841301114836717      0.791183043749556
H       1.283893589957758     -2.713471073003024     -0.728100614413484
O       0.958917358991965      2.336308784796018      0.753362672256371
H       0.059119879001022      2.744253448484872      0.908106481081589
H       1.354560048202899      2.710084980616349     -0.085540312547011
O       2.515090892614529      0.293408112097560     -0.173328746150122
H       2.741580860805558     -0.120561935780472     -1.054992567438421
H       3.091165828787595     -0.105585941967948      0.540072552372364
O      -1.828808782656691      1.628994629777141      0.533310932978720
H      -2.189661344902893      1.923693265559453     -0.351526985732043
H      -2.563570814950697      1.217639674639647      1.072673386976967
O      -1.821966427017863     -1.746768710497842      0.650556214133689
H      -2.164103261819517     -2.044464568619000     -0.240689858693234
H      -2.533225800587833     -1.227264847401184      1.124081123443117
21

U       0.000000000000000     -0.000000000000000     -0.000000000000000
O      -0.019816104077328     -0.024604299260147      1.794879701990882
O       0.525063679319390     -0.179827248100597     -1.694923352046425
O      -3.500050985816094      0.078868427892112      1.807861130865813
H      -3.482979308045027      0.181755026635387      2.802407713795502
H      -4.447593118753822      0.085336816438828      1.488295697413711
O       1.036508054708087     -2.222844579093636      0.145051106733717
H       0.694085398285000     -2.864169038615969      0.831673027434290
H       1.232339384443885     -2.715462569936349     -0.702874364868592
O       0.943187838204544      2.294546200626079      0.589895584902263
H       0.146013050105255      2.815657521303768      0.894781381029941
H       1.302919923667090      2.697547258355486     -0.251640495226062
O       2.489469962064825      0.212394763270827     -0.145716471038603
H       2.779284288458834     -0.098610477123524     -1.050859220368253
H       3.130082935364163     -0.125549919290310      0.543782194637578
O      -1.842817645573969      1.597883061996147      0.497204126519379
H      -2.187963912378058      1.907809259427167     -0.388696435991533
H      -2.591215456941625      1.195072615101448      1.024123911508134
O      -1.825916033653474     -1.705388029283533      0.638884571864956
H      -2.139654635347461     -2.017987999892360     -0.257691887887620
H      -2.558242696653771     -1.194130382038794      1.088677053785923
21

U       0.000000000000000     -0.000000000000000     -0.000000000000000
O       0.015419436619680      0.012141536209256      1.789140111100324
O       0.552374312225279     -0.064131947044638     -1.734057401270978
O      -3.615364179080555      0.035396348692424      1.771769186871569
H      -3.685763122362568      0.112557655873375      2.766299287702561
H      -4.531874250827943      0.034990819138522      1.371757782119931
O       0.865307824943291     -2.174701725239307      0.175409039620612
H       0.645263809884065     -2.859939516459533      0.869692699892293
H       1.116084641087630     -2.632821763846892     -0.677372889544573
O       0.858022413109760      2.196479807969746      0.441179607621562
H       0.213276008773188      2.830975393818534      0.867462876861005
H       1.215360956494584      2.600105981644111     -0.401076337644842
O       2.475922706888111      0.165609931251015     -0.030952634294725
H       2.848665655263589     -0.061525671389061     -0.930659315635753
H       3.133897386454955     -0.091164066889851      0.676957271645052
O      -1.811861395789067      1.610375147197791      0.597912269497394
H      -2.122277752438687      1.951080051090848     -0.289534548057100
H      -2.569852453589146      1.153192545873684      1.063136543736864
O      -1.842762098831817     -1.654181083020152      0.724266047099036
H      -2.109347790868134     -2.004372517222492     -0.173674946626513
H      -2.600783548816710     -1.133927395954045      1.117635571156152
21

U       0.000000000000000     -0.000000000000000     -0.000000000000000
O       0.034093840798846      0.026773698492685      1.789244321231352
O       0.560340880406813      0.013457010280967     -1.735551843456168
O      -3.733186357988879      0.015278835576458      1.734085100816937
H      -3.859794020360887      0.069305764739314      2.724565585609005
H      -4.626101031714970      0.004869579793054      1.283979521159604
O       0.742173126413523     -2.211958324670815      0.084659195517377
H       0.649518810931970     -2.881089206643829      0.822005139164361
H       1.079664241095979     -2.667979230462625     -0.738836208836049
O       0.793549946305329      2.200629724248989      0.247021854647193
H       0.342296471281226      2.887017374778857      0.817322033920144
H       1.157787942899108      2.637731495878749     -0.575336171443315
O       2.467278648327756      0.087961393779056     -0.006246394614642
H       2.948956395236887     -0.041692536515887     -0.872950730874487
H       3.101703721086308     -0.058169851589063      0.752799378828876
O      -1.816430774947208      1.583113555207108      0.636333610949871
H      -2.106614477782905      1.962539854407672     -0.242204437220797
H      -2.586260139336673      1.111443481591326      1.066322089143179
O      -1.895392318726550     -1.582708114619690      0.765800321788114
H      -2.114536513622609     -1.978598527607901     -0.125965680449795
H      -2.689625173518459     -1.084465671097861      1.113577031535176
21

U       0.000000000000000     -0.000000000000000     -0.000000000000000
O       0.061988769616529      0.026832751312290      1.795225352965842
O       0.535265091216038      0.011786765427991     -1.741593861077444
O      -3.829239850092881      0.005476453530876      1.719704463825339
H      -3.994557040643313      0.037208937839049      2.705434282765673
H      -4.703965155768841     -0.013320921101914      1.235450090260148
O       0.639781057594261     -2.293080887586540     -0.106170807562039
H       0.726991292458339     -2.891415902905346      0.690314964048728
H       1.085551989629556     -2.719040795936865     -0.893474073546988
O       0.692104154988784      2.276738620836970     -0.029463727299967
H       0.588742845664077      2.939094610183836      0.712561193515376
H       1.119941314207966      2.721652534158160     -0.816233690455962
O       2.458391870750538     -0.000925551608942      0.037583426146531
H       3.048563163971452     -0.000711448757682     -0.769694592145756
H       3.022664251155306     -0.017382737929730      0.863008069424608
O      -1.806877501224212      1.541384113496543      0.669039763344043
H      -2.079380676595951      1.976730920652655     -0.188990059512539
H      -2.594281352751989      1.073223495890331      1.070064464231400
O      -1.951758175638674     -1.505476567097862      0.767749153963496
H      -2.135172381453964     -1.956403969978176     -0.105763127825810
H      -2.780567954999143     -1.045063545449768      1.085702293802252
21

U       0.000000000000000     -0.000000000000000     -0.000000000000000
O       0.084651909502093     -0.007427217717639      1.799108932375448
O       0.270437729323640     -0.001357441963293     -1.791820518287415
O      -3.803983554597936      0.036600480913896      1.735283038611758
H      -3.990791468024740      0.025778101739835      2.717619884907435
H      -4.667887917665858      0.033541562718216      1.231636441788469
O       0.549397984937993     -2.362344354362261     -0.295014904644271
H       0.898340166870560     -2.909983030161928      0.465466018480383
H       1.050466208876875     -2.592771260761965     -1.129181600074985
O       0.595595687970543      2.373086025643151     -0.274724453053763
H       0.935072941272866      2.894613961511994      0.508067860780945
H       1.129723383998905      2.606047923307558     -1.087396809278602
O       2.409933801432330     -0.063736127392441      0.201382441297155
H       3.066973711839310      0.055068582160730     -0.543052913263854
H       2.875508394282824      0.052871259726275      1.078675445806733
O      -1.810441425971701      1.544392391782503      0.666489324127661
H      -2.083852719475347      2.059272619930411     -0.146003515992805
H      -2.616013814264703      1.117368618089980      1.077225034678019
O      -1.877903702829540     -1.490753649186502      0.631809038259756
H      -2.152722572809307     -2.000725773280359     -0.183300169975707
H      -2.680454149156696     -1.053723708506331      1.037909533271976
21

U       0.000000000000000     -0.000000000000000     -0.000000000000000
O      -0.004896991530648      0.017283180289983      1.786630546052691
O       0.086731388371310     -0.006787661858121     -1.791137783867498
O      -3.802197578164556      0.003580588033189      1.542095855135124
H      -3.830917437757994      0.005829201783110      2.541680825710981
H      -4.735030254479362     -0.002399916030099      1.181835627562736
O       0.628615751914248     -2.334083995378888     -0.304538275702818
H       0.883933126259238     -2.963843838429612      0.429093497353875
H       0.906894571221222     -2.717746150450551     -1.185085974292102
O       0.642349180199772      2.328187026089742     -0.293827581412328
H       0.875364964605059      2.966858917842058      0.439522170686564
H       0.987362192319179      2.679698582323742     -1.164118134792200
O       2.401668687948501     -0.049744736165398      0.342121768348170
H       3.078256238191089     -0.168612204988984     -0.384582994063779
H       2.870134521086219      0.117974857033730      1.209537413376379
O      -1.929479107876968      1.499084556433850      0.416603339731112
H      -2.173928476530847      1.970340094983891     -0.430841480626314
H      -2.748103267812861      1.087567406846466      0.817237986716029
O      -1.924720863609821     -1.496816564654303      0.439118219967220
H      -2.166258263528911     -1.976272905425319     -0.404553103318568
H      -2.744715620049846     -1.081459753598498      0.832929493193896
