15
# UO2 4H2O derived by removing one water
U -0.4193 0.2123 0.1018
O 1.1822 0.9792 0.1743
O -2.0068 -0.5497 -0.1304
O -1.6172 2.2191 -0.7126
H -2.5526 2.226 -0.9995
H -1.2731 3.128 -0.8244
O 0.9046 -1.8307 -0.3086
H 0.5819 -2.7447 -0.4413
H 1.8777 -1.8501 -0.4076
O -0.1489 0.1448 -2.3461
H -0.8081 -0.1703 -2.9968
H 0.6309 0.4518 -2.851
O -0.6837 1.7241 2.0738
H -1.4562 1.8695 2.6561
H 0.0204 2.3354 2.3698
