18

U      -0.414633333333333      0.213933333333333      0.048566666666667
O       1.186425751635119      0.980622195189284      0.121046706417034
O      -2.015692418301786     -0.552755528522618     -0.023913373083700
O      -1.361938621462161      2.262349679245933     -0.872091304805333
H      -2.317145320480647      2.383875735332604     -1.141927514092051
H      -0.858409530883385      3.110382759293581     -1.037313428281003
O       0.625081402640479     -1.911480877221727     -0.534059301518535
H       0.134780862706542     -2.766755677425154     -0.701720855482097
H       1.607145178588033     -2.062631665380634     -0.646772118937730
O      -0.251005492926647      0.097803518189023     -2.380956511959840
H      -0.945391537818061     -0.287336299089881     -2.988817796963608
H       0.516632925853288      0.437248085122634     -2.924563579603642
O      -1.161080197446313      1.602717015090727      1.905658974406137
H      -2.075768805523881      1.580887588034251      2.309228331973716
H      -0.602280684375846      2.280939064307252      2.382898910024216
O       0.064159016990346     -0.978096670176226      2.119073918311863
H      -0.556100571902575     -1.617068394762564      2.574038947259742
H       0.910689605185704     -0.902923172587436      2.646079524078908
