21

U      -0.109800000000000      0.024700000000000      0.265700000000000
O       1.209900000000000      1.197800000000000      0.312400000000000
O      -1.552400000000000     -0.997300000000000      0.165400000000000
O      -1.361563399415364      1.862991021062660     -0.745035423939514
H      -2.335329249276237      1.819753822546217     -0.968442259799972
H      -1.005555413355380      2.767508870546225     -0.979781614168754
O       1.066057562322859     -2.075406319712754     -0.233421361219905
H       0.649284739946000     -2.949034780735396     -0.484566193177956
H       2.025201633438392     -2.070107605535531     -0.516289836791129
O       0.083507923729735     -0.143441807566223     -2.155151558937143
H      -0.552713498798442     -0.610633845534291     -2.769117275549614
H       0.837689734459137      0.241826803045821     -2.686920206040360
O      -1.121247742863364      1.337500486726997      2.050044308089530
H      -2.042192957759809      1.191082446266814      2.411183711349739
H      -0.675547176892330      2.072191368337523      2.561493537213448
O       0.345435825061364     -1.157559321879937      2.364535802163466
H      -0.289215200387005     -1.760333849740833      2.848148192885010
H       1.047965460758638     -0.835207308557134      2.998997219803491
O       2.216907161397006     -3.396349165364414      2.101940692298230
H       3.142382233885521     -3.389275386887213      2.480683153425094
H       1.807222309471785     -4.298105083883552      2.239761538031798
