21

U       0.000000000000000     -0.000000000000000     -0.000000000000000
O      -0.000000000000001     -0.000000000000001      1.770000000000000
O       0.000000000000001      0.000000000000001     -1.770000000000000
O       2.437634770275949      0.000000000000275     -0.008965879157506
H       3.014862582881609      0.000000000000219     -0.825549036193264
H       3.015107483064334      0.000000000000214      0.807444107298333
O      -3.815999584141702     -0.000000000000315      1.525631717451349
H      -3.793416984111176     -0.000000000000244      2.525376698021824
H      -4.766095724443340     -0.000000000000296      1.213674470085735
O       0.749265324719919     -2.321405109499725     -0.020157633628160
H       0.820247348997263     -2.906050282244451      0.788020301121224
H       1.034919026225591     -2.835005570441149     -0.829241392788401
O       0.749265324718314      2.321405109496721     -0.020157633628106
H       0.820247348995820      2.906050282241447      0.788020301121264
H       1.034919026224102      2.835005570438054     -0.829241392788362
O      -1.968008323545812      1.416688293297350      0.040057242510527
H      -2.208021592261869      2.255557111933588     -0.448504663454395
H      -2.743323540787619      1.123205057406940      0.599301289563854
O      -1.968008323549853     -1.416688293298193      0.040057242511184
H      -2.208021592265179     -2.255557111934485     -0.448504663454003
H      -2.743323540792041     -1.123205057408437      0.599301289564325
