21

U      -0.109800000000000      0.024700000000000      0.265700000000000
O       1.209900000000000      1.197800000000000      0.312400000000000
O      -1.552400000000000     -0.997300000000000      0.165400000000000
O      -1.459659226750802      1.812074932504402     -0.726389010922401
H      -2.417143298053572      1.742088267524464     -1.006257051124312
H      -1.126773833169729      2.737832299599799     -0.905722811442471
O       1.463106134467535     -1.748393210878588     -0.213677184662806
H       1.475735490821197     -2.482419121549043     -0.892681206611500
H       2.259388347072007     -1.834463662216478      0.385093652382736
O       0.100978807303643     -0.147595772576747     -2.158786869951029
H      -0.571297137665068     -0.567024289453371     -2.768807175389382
H       0.858061403867168      0.219582640828334     -2.699162623209776
O      -1.192238536872342      1.246301126586947      2.085522484144042
H      -2.141889129748928      1.133077983553893      2.377659902717674
H      -0.757868178671177      1.961129083300780      2.633558417470058
O       0.596468467478235     -0.967842816578994      2.355030385418496
H       0.096278109799788     -1.215856851950901      3.184668043883955
H       1.556488161563824     -1.229795159009272      2.453737818082419
O       3.236873667217322     -1.642516055915282      1.908508870286517
H       3.965472604353949     -0.960477054586661      1.971488148386805
H       3.569694900556374     -2.518926497825840      2.256553068555665
